
---------- Begin Simulation Statistics ----------
simSeconds                                   0.124182                       # Number of seconds simulated (Second)
simTicks                                 124182322031                       # Number of ticks simulated (Tick)
finalTick                                124182322031                       # Number of ticks from beginning of simulation (restored from checkpoints and never reset) (Tick)
simFreq                                  1000000000000                       # The number of ticks per simulated second ((Tick/Second))
hostSeconds                                     53.90                       # Real time elapsed on the host (Second)
hostTickRate                               2304145788                       # The number of ticks simulated per host second (ticks/s) ((Tick/Second))
hostMemory                                    8669180                       # Number of bytes of host memory used (Byte)
simInsts                                     12147927                       # Number of instructions simulated (Count)
simOps                                       23111553                       # Number of ops (including micro ops) simulated (Count)
hostInstRate                                   225399                       # Simulator instruction rate (inst/s) ((Count/Second))
hostOpRate                                     428815                       # Simulator op (including micro ops) rate (op/s) ((Count/Second))
system.clk_domain.clock                         13333                       # Clock period in ticks (Tick)
system.clk_domain.voltage_domain.voltage            1                       # Voltage in Volts (Volt)
system.cpu.numCycles                          9313908                       # Number of cpu cycles simulated (Cycle)
system.cpu.cpi                               0.766708                       # CPI: cycles per instruction (core level) ((Cycle/Count))
system.cpu.ipc                               1.304278                       # IPC: instructions per cycle (core level) ((Count/Cycle))
system.cpu.numWorkItemsStarted                      0                       # Number of work items this cpu started (Count)
system.cpu.numWorkItemsCompleted                    0                       # Number of work items this cpu completed (Count)
system.cpu.instsAdded                        27030015                       # Number of instructions added to the IQ (excludes non-spec) (Count)
system.cpu.nonSpecInstsAdded                    12286                       # Number of non-speculative instructions added to the IQ (Count)
system.cpu.instsIssued                       25570533                       # Number of instructions issued (Count)
system.cpu.squashedInstsIssued                  89711                       # Number of squashed instructions issued (Count)
system.cpu.squashedInstsExamined              3930738                       # Number of squashed instructions iterated over during squash; mainly for profiling (Count)
system.cpu.squashedOperandsExamined           7742427                       # Number of squashed operands that are examined and possibly removed from graph (Count)
system.cpu.squashedNonSpecRemoved                 433                       # Number of squashed non-spec instructions that were removed (Count)
system.cpu.numIssuedDist::samples             9279800                       # Number of insts issued each cycle (Count)
system.cpu.numIssuedDist::mean               2.755505                       # Number of insts issued each cycle (Count)
system.cpu.numIssuedDist::stdev              2.769932                       # Number of insts issued each cycle (Count)
system.cpu.numIssuedDist::underflows                0      0.00%      0.00% # Number of insts issued each cycle (Count)
system.cpu.numIssuedDist::0                   3488176     37.59%     37.59% # Number of insts issued each cycle (Count)
system.cpu.numIssuedDist::1                    863363      9.30%     46.89% # Number of insts issued each cycle (Count)
system.cpu.numIssuedDist::2                    696959      7.51%     54.40% # Number of insts issued each cycle (Count)
system.cpu.numIssuedDist::3                    618471      6.66%     61.07% # Number of insts issued each cycle (Count)
system.cpu.numIssuedDist::4                    503314      5.42%     66.49% # Number of insts issued each cycle (Count)
system.cpu.numIssuedDist::5                    716250      7.72%     74.21% # Number of insts issued each cycle (Count)
system.cpu.numIssuedDist::6                   1277724     13.77%     87.98% # Number of insts issued each cycle (Count)
system.cpu.numIssuedDist::7                    727355      7.84%     95.82% # Number of insts issued each cycle (Count)
system.cpu.numIssuedDist::8                    388188      4.18%    100.00% # Number of insts issued each cycle (Count)
system.cpu.numIssuedDist::overflows                 0      0.00%    100.00% # Number of insts issued each cycle (Count)
system.cpu.numIssuedDist::min_value                 0                       # Number of insts issued each cycle (Count)
system.cpu.numIssuedDist::max_value                 8                       # Number of insts issued each cycle (Count)
system.cpu.numIssuedDist::total               9279800                       # Number of insts issued each cycle (Count)
system.cpu.statFuBusy::No_OpClass                   0      0.00%      0.00% # attempts to use FU when none available (Count)
system.cpu.statFuBusy::IntAlu                 1128027     93.66%     93.66% # attempts to use FU when none available (Count)
system.cpu.statFuBusy::IntMult                      0      0.00%     93.66% # attempts to use FU when none available (Count)
system.cpu.statFuBusy::IntDiv                       0      0.00%     93.66% # attempts to use FU when none available (Count)
system.cpu.statFuBusy::FloatAdd                     0      0.00%     93.66% # attempts to use FU when none available (Count)
system.cpu.statFuBusy::FloatCmp                     0      0.00%     93.66% # attempts to use FU when none available (Count)
system.cpu.statFuBusy::FloatCvt                     0      0.00%     93.66% # attempts to use FU when none available (Count)
system.cpu.statFuBusy::FloatMult                    0      0.00%     93.66% # attempts to use FU when none available (Count)
system.cpu.statFuBusy::FloatMultAcc                 0      0.00%     93.66% # attempts to use FU when none available (Count)
system.cpu.statFuBusy::FloatDiv                     0      0.00%     93.66% # attempts to use FU when none available (Count)
system.cpu.statFuBusy::FloatMisc                    0      0.00%     93.66% # attempts to use FU when none available (Count)
system.cpu.statFuBusy::FloatSqrt                    0      0.00%     93.66% # attempts to use FU when none available (Count)
system.cpu.statFuBusy::SimdAdd                      2      0.00%     93.66% # attempts to use FU when none available (Count)
system.cpu.statFuBusy::SimdAddAcc                   0      0.00%     93.66% # attempts to use FU when none available (Count)
system.cpu.statFuBusy::SimdAlu                   4875      0.40%     94.07% # attempts to use FU when none available (Count)
system.cpu.statFuBusy::SimdCmp                      1      0.00%     94.07% # attempts to use FU when none available (Count)
system.cpu.statFuBusy::SimdCvt                    239      0.02%     94.09% # attempts to use FU when none available (Count)
system.cpu.statFuBusy::SimdMisc                    18      0.00%     94.09% # attempts to use FU when none available (Count)
system.cpu.statFuBusy::SimdMult                     0      0.00%     94.09% # attempts to use FU when none available (Count)
system.cpu.statFuBusy::SimdMultAcc                  0      0.00%     94.09% # attempts to use FU when none available (Count)
system.cpu.statFuBusy::SimdMatMultAcc               0      0.00%     94.09% # attempts to use FU when none available (Count)
system.cpu.statFuBusy::SimdShift                   13      0.00%     94.09% # attempts to use FU when none available (Count)
system.cpu.statFuBusy::SimdShiftAcc                 0      0.00%     94.09% # attempts to use FU when none available (Count)
system.cpu.statFuBusy::SimdDiv                      0      0.00%     94.09% # attempts to use FU when none available (Count)
system.cpu.statFuBusy::SimdSqrt                     0      0.00%     94.09% # attempts to use FU when none available (Count)
system.cpu.statFuBusy::SimdFloatAdd                 0      0.00%     94.09% # attempts to use FU when none available (Count)
system.cpu.statFuBusy::SimdFloatAlu                 0      0.00%     94.09% # attempts to use FU when none available (Count)
system.cpu.statFuBusy::SimdFloatCmp                 0      0.00%     94.09% # attempts to use FU when none available (Count)
system.cpu.statFuBusy::SimdFloatCvt                 0      0.00%     94.09% # attempts to use FU when none available (Count)
system.cpu.statFuBusy::SimdFloatDiv                 0      0.00%     94.09% # attempts to use FU when none available (Count)
system.cpu.statFuBusy::SimdFloatMisc                0      0.00%     94.09% # attempts to use FU when none available (Count)
system.cpu.statFuBusy::SimdFloatMult                0      0.00%     94.09% # attempts to use FU when none available (Count)
system.cpu.statFuBusy::SimdFloatMultAcc             0      0.00%     94.09% # attempts to use FU when none available (Count)
system.cpu.statFuBusy::SimdFloatMatMultAcc            0      0.00%     94.09% # attempts to use FU when none available (Count)
system.cpu.statFuBusy::SimdFloatSqrt                0      0.00%     94.09% # attempts to use FU when none available (Count)
system.cpu.statFuBusy::SimdReduceAdd                0      0.00%     94.09% # attempts to use FU when none available (Count)
system.cpu.statFuBusy::SimdReduceAlu                0      0.00%     94.09% # attempts to use FU when none available (Count)
system.cpu.statFuBusy::SimdReduceCmp                0      0.00%     94.09% # attempts to use FU when none available (Count)
system.cpu.statFuBusy::SimdFloatReduceAdd            0      0.00%     94.09% # attempts to use FU when none available (Count)
system.cpu.statFuBusy::SimdFloatReduceCmp            0      0.00%     94.09% # attempts to use FU when none available (Count)
system.cpu.statFuBusy::SimdAes                      0      0.00%     94.09% # attempts to use FU when none available (Count)
system.cpu.statFuBusy::SimdAesMix                   0      0.00%     94.09% # attempts to use FU when none available (Count)
system.cpu.statFuBusy::SimdSha1Hash                 0      0.00%     94.09% # attempts to use FU when none available (Count)
system.cpu.statFuBusy::SimdSha1Hash2                0      0.00%     94.09% # attempts to use FU when none available (Count)
system.cpu.statFuBusy::SimdSha256Hash               0      0.00%     94.09% # attempts to use FU when none available (Count)
system.cpu.statFuBusy::SimdSha256Hash2              0      0.00%     94.09% # attempts to use FU when none available (Count)
system.cpu.statFuBusy::SimdShaSigma2                0      0.00%     94.09% # attempts to use FU when none available (Count)
system.cpu.statFuBusy::SimdShaSigma3                0      0.00%     94.09% # attempts to use FU when none available (Count)
system.cpu.statFuBusy::SimdPredAlu                  0      0.00%     94.09% # attempts to use FU when none available (Count)
system.cpu.statFuBusy::Matrix                       0      0.00%     94.09% # attempts to use FU when none available (Count)
system.cpu.statFuBusy::MatrixMov                    0      0.00%     94.09% # attempts to use FU when none available (Count)
system.cpu.statFuBusy::MatrixOP                     0      0.00%     94.09% # attempts to use FU when none available (Count)
system.cpu.statFuBusy::MemRead                  38788      3.22%     97.31% # attempts to use FU when none available (Count)
system.cpu.statFuBusy::MemWrite                 27903      2.32%     99.63% # attempts to use FU when none available (Count)
system.cpu.statFuBusy::FloatMemRead              2847      0.24%     99.87% # attempts to use FU when none available (Count)
system.cpu.statFuBusy::FloatMemWrite             1619      0.13%    100.00% # attempts to use FU when none available (Count)
system.cpu.statFuBusy::IprAccess                    0      0.00%    100.00% # attempts to use FU when none available (Count)
system.cpu.statFuBusy::InstPrefetch                 0      0.00%    100.00% # attempts to use FU when none available (Count)
system.cpu.statFuBusy::SimdUnitStrideLoad            0      0.00%    100.00% # attempts to use FU when none available (Count)
system.cpu.statFuBusy::SimdUnitStrideStore            0      0.00%    100.00% # attempts to use FU when none available (Count)
system.cpu.statFuBusy::SimdUnitStrideMaskLoad            0      0.00%    100.00% # attempts to use FU when none available (Count)
system.cpu.statFuBusy::SimdUnitStrideMaskStore            0      0.00%    100.00% # attempts to use FU when none available (Count)
system.cpu.statFuBusy::SimdStridedLoad              0      0.00%    100.00% # attempts to use FU when none available (Count)
system.cpu.statFuBusy::SimdStridedStore             0      0.00%    100.00% # attempts to use FU when none available (Count)
system.cpu.statFuBusy::SimdIndexedLoad              0      0.00%    100.00% # attempts to use FU when none available (Count)
system.cpu.statFuBusy::SimdIndexedStore             0      0.00%    100.00% # attempts to use FU when none available (Count)
system.cpu.statFuBusy::SimdWholeRegisterLoad            0      0.00%    100.00% # attempts to use FU when none available (Count)
system.cpu.statFuBusy::SimdWholeRegisterStore            0      0.00%    100.00% # attempts to use FU when none available (Count)
system.cpu.statFuBusy::SimdUnitStrideFaultOnlyFirstLoad            0      0.00%    100.00% # attempts to use FU when none available (Count)
system.cpu.statFuBusy::SimdUnitStrideSegmentedLoad            0      0.00%    100.00% # attempts to use FU when none available (Count)
system.cpu.statFuBusy::SimdUnitStrideSegmentedStore            0      0.00%    100.00% # attempts to use FU when none available (Count)
system.cpu.statFuBusy::SimdExt                      0      0.00%    100.00% # attempts to use FU when none available (Count)
system.cpu.statFuBusy::SimdFloatExt                 0      0.00%    100.00% # attempts to use FU when none available (Count)
system.cpu.statFuBusy::SimdConfig                   0      0.00%    100.00% # attempts to use FU when none available (Count)
system.cpu.statIssuedInstType_0::No_OpClass       146561      0.57%      0.57% # Number of instructions issued per FU type, per thread (Count)
system.cpu.statIssuedInstType_0::IntAlu      20901148     81.74%     82.31% # Number of instructions issued per FU type, per thread (Count)
system.cpu.statIssuedInstType_0::IntMult        19119      0.07%     82.39% # Number of instructions issued per FU type, per thread (Count)
system.cpu.statIssuedInstType_0::IntDiv        252833      0.99%     83.38% # Number of instructions issued per FU type, per thread (Count)
system.cpu.statIssuedInstType_0::FloatAdd        34622      0.14%     83.51% # Number of instructions issued per FU type, per thread (Count)
system.cpu.statIssuedInstType_0::FloatCmp            0      0.00%     83.51% # Number of instructions issued per FU type, per thread (Count)
system.cpu.statIssuedInstType_0::FloatCvt         1700      0.01%     83.52% # Number of instructions issued per FU type, per thread (Count)
system.cpu.statIssuedInstType_0::FloatMult            0      0.00%     83.52% # Number of instructions issued per FU type, per thread (Count)
system.cpu.statIssuedInstType_0::FloatMultAcc            0      0.00%     83.52% # Number of instructions issued per FU type, per thread (Count)
system.cpu.statIssuedInstType_0::FloatDiv            0      0.00%     83.52% # Number of instructions issued per FU type, per thread (Count)
system.cpu.statIssuedInstType_0::FloatMisc            0      0.00%     83.52% # Number of instructions issued per FU type, per thread (Count)
system.cpu.statIssuedInstType_0::FloatSqrt            0      0.00%     83.52% # Number of instructions issued per FU type, per thread (Count)
system.cpu.statIssuedInstType_0::SimdAdd         7634      0.03%     83.55% # Number of instructions issued per FU type, per thread (Count)
system.cpu.statIssuedInstType_0::SimdAddAcc            0      0.00%     83.55% # Number of instructions issued per FU type, per thread (Count)
system.cpu.statIssuedInstType_0::SimdAlu        54884      0.21%     83.76% # Number of instructions issued per FU type, per thread (Count)
system.cpu.statIssuedInstType_0::SimdCmp           11      0.00%     83.76% # Number of instructions issued per FU type, per thread (Count)
system.cpu.statIssuedInstType_0::SimdCvt        26240      0.10%     83.87% # Number of instructions issued per FU type, per thread (Count)
system.cpu.statIssuedInstType_0::SimdMisc        29244      0.11%     83.98% # Number of instructions issued per FU type, per thread (Count)
system.cpu.statIssuedInstType_0::SimdMult            0      0.00%     83.98% # Number of instructions issued per FU type, per thread (Count)
system.cpu.statIssuedInstType_0::SimdMultAcc            0      0.00%     83.98% # Number of instructions issued per FU type, per thread (Count)
system.cpu.statIssuedInstType_0::SimdMatMultAcc            0      0.00%     83.98% # Number of instructions issued per FU type, per thread (Count)
system.cpu.statIssuedInstType_0::SimdShift         4888      0.02%     84.00% # Number of instructions issued per FU type, per thread (Count)
system.cpu.statIssuedInstType_0::SimdShiftAcc            0      0.00%     84.00% # Number of instructions issued per FU type, per thread (Count)
system.cpu.statIssuedInstType_0::SimdDiv            0      0.00%     84.00% # Number of instructions issued per FU type, per thread (Count)
system.cpu.statIssuedInstType_0::SimdSqrt            0      0.00%     84.00% # Number of instructions issued per FU type, per thread (Count)
system.cpu.statIssuedInstType_0::SimdFloatAdd         4802      0.02%     84.02% # Number of instructions issued per FU type, per thread (Count)
system.cpu.statIssuedInstType_0::SimdFloatAlu            0      0.00%     84.02% # Number of instructions issued per FU type, per thread (Count)
system.cpu.statIssuedInstType_0::SimdFloatCmp            0      0.00%     84.02% # Number of instructions issued per FU type, per thread (Count)
system.cpu.statIssuedInstType_0::SimdFloatCvt            6      0.00%     84.02% # Number of instructions issued per FU type, per thread (Count)
system.cpu.statIssuedInstType_0::SimdFloatDiv            2      0.00%     84.02% # Number of instructions issued per FU type, per thread (Count)
system.cpu.statIssuedInstType_0::SimdFloatMisc            0      0.00%     84.02% # Number of instructions issued per FU type, per thread (Count)
system.cpu.statIssuedInstType_0::SimdFloatMult            0      0.00%     84.02% # Number of instructions issued per FU type, per thread (Count)
system.cpu.statIssuedInstType_0::SimdFloatMultAcc            0      0.00%     84.02% # Number of instructions issued per FU type, per thread (Count)
system.cpu.statIssuedInstType_0::SimdFloatMatMultAcc            0      0.00%     84.02% # Number of instructions issued per FU type, per thread (Count)
system.cpu.statIssuedInstType_0::SimdFloatSqrt            0      0.00%     84.02% # Number of instructions issued per FU type, per thread (Count)
system.cpu.statIssuedInstType_0::SimdReduceAdd            0      0.00%     84.02% # Number of instructions issued per FU type, per thread (Count)
system.cpu.statIssuedInstType_0::SimdReduceAlu            0      0.00%     84.02% # Number of instructions issued per FU type, per thread (Count)
system.cpu.statIssuedInstType_0::SimdReduceCmp            0      0.00%     84.02% # Number of instructions issued per FU type, per thread (Count)
system.cpu.statIssuedInstType_0::SimdFloatReduceAdd            0      0.00%     84.02% # Number of instructions issued per FU type, per thread (Count)
system.cpu.statIssuedInstType_0::SimdFloatReduceCmp            0      0.00%     84.02% # Number of instructions issued per FU type, per thread (Count)
system.cpu.statIssuedInstType_0::SimdAes            0      0.00%     84.02% # Number of instructions issued per FU type, per thread (Count)
system.cpu.statIssuedInstType_0::SimdAesMix            0      0.00%     84.02% # Number of instructions issued per FU type, per thread (Count)
system.cpu.statIssuedInstType_0::SimdSha1Hash            0      0.00%     84.02% # Number of instructions issued per FU type, per thread (Count)
system.cpu.statIssuedInstType_0::SimdSha1Hash2            0      0.00%     84.02% # Number of instructions issued per FU type, per thread (Count)
system.cpu.statIssuedInstType_0::SimdSha256Hash            0      0.00%     84.02% # Number of instructions issued per FU type, per thread (Count)
system.cpu.statIssuedInstType_0::SimdSha256Hash2            0      0.00%     84.02% # Number of instructions issued per FU type, per thread (Count)
system.cpu.statIssuedInstType_0::SimdShaSigma2            0      0.00%     84.02% # Number of instructions issued per FU type, per thread (Count)
system.cpu.statIssuedInstType_0::SimdShaSigma3            0      0.00%     84.02% # Number of instructions issued per FU type, per thread (Count)
system.cpu.statIssuedInstType_0::SimdPredAlu            0      0.00%     84.02% # Number of instructions issued per FU type, per thread (Count)
system.cpu.statIssuedInstType_0::Matrix             0      0.00%     84.02% # Number of instructions issued per FU type, per thread (Count)
system.cpu.statIssuedInstType_0::MatrixMov            0      0.00%     84.02% # Number of instructions issued per FU type, per thread (Count)
system.cpu.statIssuedInstType_0::MatrixOP            0      0.00%     84.02% # Number of instructions issued per FU type, per thread (Count)
system.cpu.statIssuedInstType_0::MemRead      3081377     12.05%     96.07% # Number of instructions issued per FU type, per thread (Count)
system.cpu.statIssuedInstType_0::MemWrite       917436      3.59%     99.66% # Number of instructions issued per FU type, per thread (Count)
system.cpu.statIssuedInstType_0::FloatMemRead        55438      0.22%     99.87% # Number of instructions issued per FU type, per thread (Count)
system.cpu.statIssuedInstType_0::FloatMemWrite        32588      0.13%    100.00% # Number of instructions issued per FU type, per thread (Count)
system.cpu.statIssuedInstType_0::IprAccess            0      0.00%    100.00% # Number of instructions issued per FU type, per thread (Count)
system.cpu.statIssuedInstType_0::InstPrefetch            0      0.00%    100.00% # Number of instructions issued per FU type, per thread (Count)
system.cpu.statIssuedInstType_0::SimdUnitStrideLoad            0      0.00%    100.00% # Number of instructions issued per FU type, per thread (Count)
system.cpu.statIssuedInstType_0::SimdUnitStrideStore            0      0.00%    100.00% # Number of instructions issued per FU type, per thread (Count)
system.cpu.statIssuedInstType_0::SimdUnitStrideMaskLoad            0      0.00%    100.00% # Number of instructions issued per FU type, per thread (Count)
system.cpu.statIssuedInstType_0::SimdUnitStrideMaskStore            0      0.00%    100.00% # Number of instructions issued per FU type, per thread (Count)
system.cpu.statIssuedInstType_0::SimdStridedLoad            0      0.00%    100.00% # Number of instructions issued per FU type, per thread (Count)
system.cpu.statIssuedInstType_0::SimdStridedStore            0      0.00%    100.00% # Number of instructions issued per FU type, per thread (Count)
system.cpu.statIssuedInstType_0::SimdIndexedLoad            0      0.00%    100.00% # Number of instructions issued per FU type, per thread (Count)
system.cpu.statIssuedInstType_0::SimdIndexedStore            0      0.00%    100.00% # Number of instructions issued per FU type, per thread (Count)
system.cpu.statIssuedInstType_0::SimdWholeRegisterLoad            0      0.00%    100.00% # Number of instructions issued per FU type, per thread (Count)
system.cpu.statIssuedInstType_0::SimdWholeRegisterStore            0      0.00%    100.00% # Number of instructions issued per FU type, per thread (Count)
system.cpu.statIssuedInstType_0::SimdUnitStrideFaultOnlyFirstLoad            0      0.00%    100.00% # Number of instructions issued per FU type, per thread (Count)
system.cpu.statIssuedInstType_0::SimdUnitStrideSegmentedLoad            0      0.00%    100.00% # Number of instructions issued per FU type, per thread (Count)
system.cpu.statIssuedInstType_0::SimdUnitStrideSegmentedStore            0      0.00%    100.00% # Number of instructions issued per FU type, per thread (Count)
system.cpu.statIssuedInstType_0::SimdExt            0      0.00%    100.00% # Number of instructions issued per FU type, per thread (Count)
system.cpu.statIssuedInstType_0::SimdFloatExt            0      0.00%    100.00% # Number of instructions issued per FU type, per thread (Count)
system.cpu.statIssuedInstType_0::SimdConfig            0      0.00%    100.00% # Number of instructions issued per FU type, per thread (Count)
system.cpu.statIssuedInstType_0::total       25570533                       # Number of instructions issued per FU type, per thread (Count)
system.cpu.issueRate                         2.745414                       # Inst issue rate ((Count/Cycle))
system.cpu.fuBusy                             1204332                       # FU busy when requested (Count)
system.cpu.fuBusyRate                        0.047098                       # FU busy rate (busy events/executed inst) ((Count/Count))
system.cpu.intInstQueueReads                 61191537                       # Number of integer instruction queue reads (Count)
system.cpu.intInstQueueWrites                30654547                       # Number of integer instruction queue writes (Count)
system.cpu.intInstQueueWakeupAccesses        25063710                       # Number of integer instruction queue wakeup accesses (Count)
system.cpu.fpInstQueueReads                    523372                       # Number of floating instruction queue reads (Count)
system.cpu.fpInstQueueWrites                   321805                       # Number of floating instruction queue writes (Count)
system.cpu.fpInstQueueWakeupAccesses           249688                       # Number of floating instruction queue wakeup accesses (Count)
system.cpu.vecInstQueueReads                        0                       # Number of vector instruction queue reads (Count)
system.cpu.vecInstQueueWrites                       0                       # Number of vector instruction queue writes (Count)
system.cpu.vecInstQueueWakeupAccesses               0                       # Number of vector instruction queue wakeup accesses (Count)
system.cpu.intAluAccesses                    26362170                       # Number of integer alu accesses (Count)
system.cpu.fpAluAccesses                       266134                       # Number of floating point alu accesses (Count)
system.cpu.vecAluAccesses                           0                       # Number of vector alu accesses (Count)
system.cpu.numSquashedInsts                    177254                       # Number of squashed instructions skipped in execute (Count)
system.cpu.numSwp                                   0                       # Number of swp insts executed (Count)
system.cpu.timesIdled                            6056                       # Number of times that the entire CPU went into an idle state and unscheduled itself (Count)
system.cpu.idleCycles                           34108                       # Total number of cycles that the CPU has spent unscheduled due to idling (Cycle)
system.cpu.MemDepUnit__0.insertedLoads        3200747                       # Number of loads inserted to the mem dependence unit. (Count)
system.cpu.MemDepUnit__0.insertedStores       1023329                       # Number of stores inserted to the mem dependence unit. (Count)
system.cpu.MemDepUnit__0.conflictingLoads        89211                       # Number of conflicting loads. (Count)
system.cpu.MemDepUnit__0.conflictingStores        60660                       # Number of conflicting stores. (Count)
system.cpu.MemDepUnit__1.insertedLoads              0                       # Number of loads inserted to the mem dependence unit. (Count)
system.cpu.MemDepUnit__1.insertedStores             0                       # Number of stores inserted to the mem dependence unit. (Count)
system.cpu.MemDepUnit__1.conflictingLoads            0                       # Number of conflicting loads. (Count)
system.cpu.MemDepUnit__1.conflictingStores            0                       # Number of conflicting stores. (Count)
system.cpu.MemDepUnit__2.insertedLoads              0                       # Number of loads inserted to the mem dependence unit. (Count)
system.cpu.MemDepUnit__2.insertedStores             0                       # Number of stores inserted to the mem dependence unit. (Count)
system.cpu.MemDepUnit__2.conflictingLoads            0                       # Number of conflicting loads. (Count)
system.cpu.MemDepUnit__2.conflictingStores            0                       # Number of conflicting stores. (Count)
system.cpu.MemDepUnit__3.insertedLoads              0                       # Number of loads inserted to the mem dependence unit. (Count)
system.cpu.MemDepUnit__3.insertedStores             0                       # Number of stores inserted to the mem dependence unit. (Count)
system.cpu.MemDepUnit__3.conflictingLoads            0                       # Number of conflicting loads. (Count)
system.cpu.MemDepUnit__3.conflictingStores            0                       # Number of conflicting stores. (Count)
system.cpu.branchPred.lookups_0::NoBranch         8004      0.22%      0.22% # Number of BP lookups (Count)
system.cpu.branchPred.lookups_0::Return         78396      2.17%      2.39% # Number of BP lookups (Count)
system.cpu.branchPred.lookups_0::CallDirect        95542      2.65%      5.04% # Number of BP lookups (Count)
system.cpu.branchPred.lookups_0::CallIndirect         1354      0.04%      5.08% # Number of BP lookups (Count)
system.cpu.branchPred.lookups_0::DirectCond      3088614     85.56%     90.64% # Number of BP lookups (Count)
system.cpu.branchPred.lookups_0::DirectUncond       297634      8.25%     98.89% # Number of BP lookups (Count)
system.cpu.branchPred.lookups_0::IndirectCond            0      0.00%     98.89% # Number of BP lookups (Count)
system.cpu.branchPred.lookups_0::IndirectUncond        40147      1.11%    100.00% # Number of BP lookups (Count)
system.cpu.branchPred.lookups_0::total        3609691                       # Number of BP lookups (Count)
system.cpu.branchPred.squashes_0::NoBranch         7679      0.94%      0.94% # Number of branches that got squashed (completely removed) as an earlier branch was mispredicted. (Count)
system.cpu.branchPred.squashes_0::Return         6496      0.79%      1.73% # Number of branches that got squashed (completely removed) as an earlier branch was mispredicted. (Count)
system.cpu.branchPred.squashes_0::CallDirect        24259      2.96%      4.69% # Number of branches that got squashed (completely removed) as an earlier branch was mispredicted. (Count)
system.cpu.branchPred.squashes_0::CallIndirect          732      0.09%      4.78% # Number of branches that got squashed (completely removed) as an earlier branch was mispredicted. (Count)
system.cpu.branchPred.squashes_0::DirectCond       724587     88.49%     93.27% # Number of branches that got squashed (completely removed) as an earlier branch was mispredicted. (Count)
system.cpu.branchPred.squashes_0::DirectUncond        47703      5.83%     99.09% # Number of branches that got squashed (completely removed) as an earlier branch was mispredicted. (Count)
system.cpu.branchPred.squashes_0::IndirectCond            0      0.00%     99.09% # Number of branches that got squashed (completely removed) as an earlier branch was mispredicted. (Count)
system.cpu.branchPred.squashes_0::IndirectUncond         7420      0.91%    100.00% # Number of branches that got squashed (completely removed) as an earlier branch was mispredicted. (Count)
system.cpu.branchPred.squashes_0::total        818876                       # Number of branches that got squashed (completely removed) as an earlier branch was mispredicted. (Count)
system.cpu.branchPred.corrected_0::NoBranch          451      0.48%      0.48% # Number of branches that got corrected but not yet commited. Branches get corrected by decode or after execute. Also a branch misprediction can be detected out-of-order. Therefore, a corrected branch might not end up beeing committed in case an even earlier branch was mispredicted (Count)
system.cpu.branchPred.corrected_0::Return           69      0.07%      0.55% # Number of branches that got corrected but not yet commited. Branches get corrected by decode or after execute. Also a branch misprediction can be detected out-of-order. Therefore, a corrected branch might not end up beeing committed in case an even earlier branch was mispredicted (Count)
system.cpu.branchPred.corrected_0::CallDirect          979      1.03%      1.58% # Number of branches that got corrected but not yet commited. Branches get corrected by decode or after execute. Also a branch misprediction can be detected out-of-order. Therefore, a corrected branch might not end up beeing committed in case an even earlier branch was mispredicted (Count)
system.cpu.branchPred.corrected_0::CallIndirect          245      0.26%      1.84% # Number of branches that got corrected but not yet commited. Branches get corrected by decode or after execute. Also a branch misprediction can be detected out-of-order. Therefore, a corrected branch might not end up beeing committed in case an even earlier branch was mispredicted (Count)
system.cpu.branchPred.corrected_0::DirectCond        90982     95.82%     97.66% # Number of branches that got corrected but not yet commited. Branches get corrected by decode or after execute. Also a branch misprediction can be detected out-of-order. Therefore, a corrected branch might not end up beeing committed in case an even earlier branch was mispredicted (Count)
system.cpu.branchPred.corrected_0::DirectUncond          850      0.90%     98.56% # Number of branches that got corrected but not yet commited. Branches get corrected by decode or after execute. Also a branch misprediction can be detected out-of-order. Therefore, a corrected branch might not end up beeing committed in case an even earlier branch was mispredicted (Count)
system.cpu.branchPred.corrected_0::IndirectCond            0      0.00%     98.56% # Number of branches that got corrected but not yet commited. Branches get corrected by decode or after execute. Also a branch misprediction can be detected out-of-order. Therefore, a corrected branch might not end up beeing committed in case an even earlier branch was mispredicted (Count)
system.cpu.branchPred.corrected_0::IndirectUncond         1371      1.44%    100.00% # Number of branches that got corrected but not yet commited. Branches get corrected by decode or after execute. Also a branch misprediction can be detected out-of-order. Therefore, a corrected branch might not end up beeing committed in case an even earlier branch was mispredicted (Count)
system.cpu.branchPred.corrected_0::total        94947                       # Number of branches that got corrected but not yet commited. Branches get corrected by decode or after execute. Also a branch misprediction can be detected out-of-order. Therefore, a corrected branch might not end up beeing committed in case an even earlier branch was mispredicted (Count)
system.cpu.branchPred.earlyResteers_0::NoBranch            0                       # Number of branches that got redirected after decode. (Count)
system.cpu.branchPred.earlyResteers_0::Return            0                       # Number of branches that got redirected after decode. (Count)
system.cpu.branchPred.earlyResteers_0::CallDirect            0                       # Number of branches that got redirected after decode. (Count)
system.cpu.branchPred.earlyResteers_0::CallIndirect            0                       # Number of branches that got redirected after decode. (Count)
system.cpu.branchPred.earlyResteers_0::DirectCond            0                       # Number of branches that got redirected after decode. (Count)
system.cpu.branchPred.earlyResteers_0::DirectUncond            0                       # Number of branches that got redirected after decode. (Count)
system.cpu.branchPred.earlyResteers_0::IndirectCond            0                       # Number of branches that got redirected after decode. (Count)
system.cpu.branchPred.earlyResteers_0::IndirectUncond            0                       # Number of branches that got redirected after decode. (Count)
system.cpu.branchPred.earlyResteers_0::total            0                       # Number of branches that got redirected after decode. (Count)
system.cpu.branchPred.committed_0::NoBranch          325      0.01%      0.01% # Number of branches finally committed  (Count)
system.cpu.branchPred.committed_0::Return        71899      2.58%      2.59% # Number of branches finally committed  (Count)
system.cpu.branchPred.committed_0::CallDirect        71282      2.55%      5.14% # Number of branches finally committed  (Count)
system.cpu.branchPred.committed_0::CallIndirect          622      0.02%      5.16% # Number of branches finally committed  (Count)
system.cpu.branchPred.committed_0::DirectCond      2364027     84.71%     89.87% # Number of branches finally committed  (Count)
system.cpu.branchPred.committed_0::DirectUncond       249931      8.96%     98.83% # Number of branches finally committed  (Count)
system.cpu.branchPred.committed_0::IndirectCond            0      0.00%     98.83% # Number of branches finally committed  (Count)
system.cpu.branchPred.committed_0::IndirectUncond        32727      1.17%    100.00% # Number of branches finally committed  (Count)
system.cpu.branchPred.committed_0::total      2790813                       # Number of branches finally committed  (Count)
system.cpu.branchPred.mispredicted_0::NoBranch          325      0.35%      0.35% # Number of committed branches that were mispredicted. (Count)
system.cpu.branchPred.mispredicted_0::Return           54      0.06%      0.41% # Number of committed branches that were mispredicted. (Count)
system.cpu.branchPred.mispredicted_0::CallDirect          638      0.69%      1.11% # Number of committed branches that were mispredicted. (Count)
system.cpu.branchPred.mispredicted_0::CallIndirect          230      0.25%      1.36% # Number of committed branches that were mispredicted. (Count)
system.cpu.branchPred.mispredicted_0::DirectCond        88955     96.78%     98.14% # Number of committed branches that were mispredicted. (Count)
system.cpu.branchPred.mispredicted_0::DirectUncond          407      0.44%     98.58% # Number of committed branches that were mispredicted. (Count)
system.cpu.branchPred.mispredicted_0::IndirectCond            0      0.00%     98.58% # Number of committed branches that were mispredicted. (Count)
system.cpu.branchPred.mispredicted_0::IndirectUncond         1306      1.42%    100.00% # Number of committed branches that were mispredicted. (Count)
system.cpu.branchPred.mispredicted_0::total        91915                       # Number of committed branches that were mispredicted. (Count)
system.cpu.branchPred.targetProvider_0::NoTarget      1463962     40.56%     40.56% # The component providing the target for taken branches (Count)
system.cpu.branchPred.targetProvider_0::BTB      2034454     56.36%     96.92% # The component providing the target for taken branches (Count)
system.cpu.branchPred.targetProvider_0::RAS        78396      2.17%     99.09% # The component providing the target for taken branches (Count)
system.cpu.branchPred.targetProvider_0::Indirect        32879      0.91%    100.00% # The component providing the target for taken branches (Count)
system.cpu.branchPred.targetProvider_0::total      3609691                       # The component providing the target for taken branches (Count)
system.cpu.branchPred.targetWrong_0::NoBranch        51397     59.95%     59.95% # Number of branches where the target was incorrect or not available at prediction time. (Count)
system.cpu.branchPred.targetWrong_0::Return        34112     39.79%     99.74% # Number of branches where the target was incorrect or not available at prediction time. (Count)
system.cpu.branchPred.targetWrong_0::CallDirect           69      0.08%     99.82% # Number of branches where the target was incorrect or not available at prediction time. (Count)
system.cpu.branchPred.targetWrong_0::CallIndirect          151      0.18%    100.00% # Number of branches where the target was incorrect or not available at prediction time. (Count)
system.cpu.branchPred.targetWrong_0::DirectCond            0      0.00%    100.00% # Number of branches where the target was incorrect or not available at prediction time. (Count)
system.cpu.branchPred.targetWrong_0::DirectUncond            0      0.00%    100.00% # Number of branches where the target was incorrect or not available at prediction time. (Count)
system.cpu.branchPred.targetWrong_0::IndirectCond            0      0.00%    100.00% # Number of branches where the target was incorrect or not available at prediction time. (Count)
system.cpu.branchPred.targetWrong_0::IndirectUncond            0      0.00%    100.00% # Number of branches where the target was incorrect or not available at prediction time. (Count)
system.cpu.branchPred.targetWrong_0::total        85729                       # Number of branches where the target was incorrect or not available at prediction time. (Count)
system.cpu.branchPred.condPredicted           3096618                       # Number of conditional branches predicted (Count)
system.cpu.branchPred.condPredictedTaken      1652706                       # Number of conditional branches predicted as taken (Count)
system.cpu.branchPred.condIncorrect             94947                       # Number of conditional branches incorrect (Count)
system.cpu.branchPred.predTakenBTBMiss           2179                       # Number of branches predicted taken but missed in BTB (Count)
system.cpu.branchPred.NotTakenMispredicted        53437                       # Number branches predicted 'not taken' but turned out to be taken (Count)
system.cpu.branchPred.TakenMispredicted         41510                       # Number branches predicted taken but are actually not taken (Count)
system.cpu.branchPred.BTBLookups              3609691                       # Number of BTB lookups (Count)
system.cpu.branchPred.BTBUpdates                51301                       # Number of BTB updates (Count)
system.cpu.branchPred.BTBHits                 2613526                       # Number of BTB hits (Count)
system.cpu.branchPred.BTBHitRatio            0.724030                       # BTB Hit Ratio (Ratio)
system.cpu.branchPred.BTBMispredicted            3074                       # Number BTB mispredictions. No target found or target wrong (Count)
system.cpu.branchPred.indirectLookups           41501                       # Number of indirect predictor lookups. (Count)
system.cpu.branchPred.indirectHits              32879                       # Number of indirect target hits. (Count)
system.cpu.branchPred.indirectMisses             8622                       # Number of indirect misses. (Count)
system.cpu.branchPred.indirectMispredicted            0                       # Number of mispredicted indirect branches. (Count)
system.cpu.branchPred.btb.lookups::NoBranch         8004      0.22%      0.22% # Number of BTB lookups (Count)
system.cpu.branchPred.btb.lookups::Return        78396      2.17%      2.39% # Number of BTB lookups (Count)
system.cpu.branchPred.btb.lookups::CallDirect        95542      2.65%      5.04% # Number of BTB lookups (Count)
system.cpu.branchPred.btb.lookups::CallIndirect         1354      0.04%      5.08% # Number of BTB lookups (Count)
system.cpu.branchPred.btb.lookups::DirectCond      3088614     85.56%     90.64% # Number of BTB lookups (Count)
system.cpu.branchPred.btb.lookups::DirectUncond       297634      8.25%     98.89% # Number of BTB lookups (Count)
system.cpu.branchPred.btb.lookups::IndirectCond            0      0.00%     98.89% # Number of BTB lookups (Count)
system.cpu.branchPred.btb.lookups::IndirectUncond        40147      1.11%    100.00% # Number of BTB lookups (Count)
system.cpu.branchPred.btb.lookups::total      3609691                       # Number of BTB lookups (Count)
system.cpu.branchPred.btb.misses::NoBranch          433      0.04%      0.04% # Number of BTB misses (Count)
system.cpu.branchPred.btb.misses::Return        78392      7.87%      7.91% # Number of BTB misses (Count)
system.cpu.branchPred.btb.misses::CallDirect         1542      0.15%      8.07% # Number of BTB misses (Count)
system.cpu.branchPred.btb.misses::CallIndirect         1354      0.14%      8.20% # Number of BTB misses (Count)
system.cpu.branchPred.btb.misses::DirectCond       873130     87.65%     95.85% # Number of BTB misses (Count)
system.cpu.branchPred.btb.misses::DirectUncond         1167      0.12%     95.97% # Number of BTB misses (Count)
system.cpu.branchPred.btb.misses::IndirectCond            0      0.00%     95.97% # Number of BTB misses (Count)
system.cpu.branchPred.btb.misses::IndirectUncond        40147      4.03%    100.00% # Number of BTB misses (Count)
system.cpu.branchPred.btb.misses::total        996165                       # Number of BTB misses (Count)
system.cpu.branchPred.btb.updates::NoBranch            0      0.00%      0.00% # Number of BTB updates (Count)
system.cpu.branchPred.btb.updates::Return            0      0.00%      0.00% # Number of BTB updates (Count)
system.cpu.branchPred.btb.updates::CallDirect          979      1.91%      1.91% # Number of BTB updates (Count)
system.cpu.branchPred.btb.updates::CallIndirect            0      0.00%      1.91% # Number of BTB updates (Count)
system.cpu.branchPred.btb.updates::DirectCond        49472     96.43%     98.34% # Number of BTB updates (Count)
system.cpu.branchPred.btb.updates::DirectUncond          850      1.66%    100.00% # Number of BTB updates (Count)
system.cpu.branchPred.btb.updates::IndirectCond            0      0.00%    100.00% # Number of BTB updates (Count)
system.cpu.branchPred.btb.updates::IndirectUncond            0      0.00%    100.00% # Number of BTB updates (Count)
system.cpu.branchPred.btb.updates::total        51301                       # Number of BTB updates (Count)
system.cpu.branchPred.btb.mispredict::NoBranch            0      0.00%      0.00% # Number of BTB mispredictions. No target found or target wrong. (Count)
system.cpu.branchPred.btb.mispredict::Return            0      0.00%      0.00% # Number of BTB mispredictions. No target found or target wrong. (Count)
system.cpu.branchPred.btb.mispredict::CallDirect          979      1.91%      1.91% # Number of BTB mispredictions. No target found or target wrong. (Count)
system.cpu.branchPred.btb.mispredict::CallIndirect            0      0.00%      1.91% # Number of BTB mispredictions. No target found or target wrong. (Count)
system.cpu.branchPred.btb.mispredict::DirectCond        49472     96.43%     98.34% # Number of BTB mispredictions. No target found or target wrong. (Count)
system.cpu.branchPred.btb.mispredict::DirectUncond          850      1.66%    100.00% # Number of BTB mispredictions. No target found or target wrong. (Count)
system.cpu.branchPred.btb.mispredict::IndirectCond            0      0.00%    100.00% # Number of BTB mispredictions. No target found or target wrong. (Count)
system.cpu.branchPred.btb.mispredict::IndirectUncond            0      0.00%    100.00% # Number of BTB mispredictions. No target found or target wrong. (Count)
system.cpu.branchPred.btb.mispredict::total        51301                       # Number of BTB mispredictions. No target found or target wrong. (Count)
system.cpu.branchPred.btb.power_state.pwrStateResidencyTicks::UNDEFINED 124182322031                       # Cumulative time (in ticks) in various power states (Tick)
system.cpu.branchPred.indirectBranchPred.lookups        41501                       # Number of lookups (Count)
system.cpu.branchPred.indirectBranchPred.hits        32879                       # Number of hits of a tag (Count)
system.cpu.branchPred.indirectBranchPred.misses         8622                       # Number of misses (Count)
system.cpu.branchPred.indirectBranchPred.targetRecords         1616                       # Number of targets that where recorded/installed in the cache (Count)
system.cpu.branchPred.indirectBranchPred.indirectRecords        43117                       # Number of indirect branches/calls recorded in the indirect hist (Count)
system.cpu.branchPred.indirectBranchPred.speculativeOverflows            1                       # Number of times more than the allowed capacity for speculative branches/calls where in flight and destroy the path history (Count)
system.cpu.branchPred.ras.pushes               103392                       # Number of times a PC was pushed onto the RAS (Count)
system.cpu.branchPred.ras.pops                 103387                       # Number of times a PC was poped from the RAS (Count)
system.cpu.branchPred.ras.squashes              31487                       # Number of times the stack operation was squashed due to wrong speculation. (Count)
system.cpu.branchPred.ras.used                  71899                       # Number of times the RAS is the provider (Count)
system.cpu.branchPred.ras.correct               71845                       # Number of times the RAS is the provider and the prediction is correct (Count)
system.cpu.branchPred.ras.incorrect                54                       # Number of times the RAS is the provider and the prediction is wrong (Count)
system.cpu.commit.commitSquashedInsts         3917900                       # The number of squashed insts skipped by commit (Count)
system.cpu.commit.commitNonSpecStalls           11853                       # The number of times commit has been forced to stall to communicate backwards (Count)
system.cpu.commit.branchMispredicts             92484                       # The number of times a branch was mispredicted (Count)
system.cpu.commit.numCommittedDist::samples      8744935                       # Number of insts commited each cycle (Count)
system.cpu.commit.numCommittedDist::mean     2.642850                       # Number of insts commited each cycle (Count)
system.cpu.commit.numCommittedDist::stdev     3.110337                       # Number of insts commited each cycle (Count)
system.cpu.commit.numCommittedDist::underflows            0      0.00%      0.00% # Number of insts commited each cycle (Count)
system.cpu.commit.numCommittedDist::0         3644240     41.67%     41.67% # Number of insts commited each cycle (Count)
system.cpu.commit.numCommittedDist::1         1056019     12.08%     53.75% # Number of insts commited each cycle (Count)
system.cpu.commit.numCommittedDist::2          633707      7.25%     60.99% # Number of insts commited each cycle (Count)
system.cpu.commit.numCommittedDist::3          815351      9.32%     70.32% # Number of insts commited each cycle (Count)
system.cpu.commit.numCommittedDist::4          292766      3.35%     73.67% # Number of insts commited each cycle (Count)
system.cpu.commit.numCommittedDist::5          177381      2.03%     75.69% # Number of insts commited each cycle (Count)
system.cpu.commit.numCommittedDist::6          198853      2.27%     77.97% # Number of insts commited each cycle (Count)
system.cpu.commit.numCommittedDist::7          321964      3.68%     81.65% # Number of insts commited each cycle (Count)
system.cpu.commit.numCommittedDist::8         1604654     18.35%    100.00% # Number of insts commited each cycle (Count)
system.cpu.commit.numCommittedDist::overflows            0      0.00%    100.00% # Number of insts commited each cycle (Count)
system.cpu.commit.numCommittedDist::min_value            0                       # Number of insts commited each cycle (Count)
system.cpu.commit.numCommittedDist::max_value            8                       # Number of insts commited each cycle (Count)
system.cpu.commit.numCommittedDist::total      8744935                       # Number of insts commited each cycle (Count)
system.cpu.commit.amos                              0                       # Number of atomic instructions committed (Count)
system.cpu.commit.membars                        7284                       # Number of memory barriers committed (Count)
system.cpu.commit.functionCalls                 71904                       # Number of function calls committed. (Count)
system.cpu.commit.committedInstType_0::No_OpClass       124148      0.54%      0.54% # Class of committed instruction (Count)
system.cpu.commit.committedInstType_0::IntAlu     18856295     81.59%     82.13% # Class of committed instruction (Count)
system.cpu.commit.committedInstType_0::IntMult        18796      0.08%     82.21% # Class of committed instruction (Count)
system.cpu.commit.committedInstType_0::IntDiv       210906      0.91%     83.12% # Class of committed instruction (Count)
system.cpu.commit.committedInstType_0::FloatAdd        26795      0.12%     83.24% # Class of committed instruction (Count)
system.cpu.commit.committedInstType_0::FloatCmp            0      0.00%     83.24% # Class of committed instruction (Count)
system.cpu.commit.committedInstType_0::FloatCvt         1632      0.01%     83.24% # Class of committed instruction (Count)
system.cpu.commit.committedInstType_0::FloatMult            0      0.00%     83.24% # Class of committed instruction (Count)
system.cpu.commit.committedInstType_0::FloatMultAcc            0      0.00%     83.24% # Class of committed instruction (Count)
system.cpu.commit.committedInstType_0::FloatDiv            0      0.00%     83.24% # Class of committed instruction (Count)
system.cpu.commit.committedInstType_0::FloatMisc            0      0.00%     83.24% # Class of committed instruction (Count)
system.cpu.commit.committedInstType_0::FloatSqrt            0      0.00%     83.24% # Class of committed instruction (Count)
system.cpu.commit.committedInstType_0::SimdAdd         6830      0.03%     83.27% # Class of committed instruction (Count)
system.cpu.commit.committedInstType_0::SimdAddAcc            0      0.00%     83.27% # Class of committed instruction (Count)
system.cpu.commit.committedInstType_0::SimdAlu        51957      0.22%     83.50% # Class of committed instruction (Count)
system.cpu.commit.committedInstType_0::SimdCmp            6      0.00%     83.50% # Class of committed instruction (Count)
system.cpu.commit.committedInstType_0::SimdCvt        23742      0.10%     83.60% # Class of committed instruction (Count)
system.cpu.commit.committedInstType_0::SimdMisc        28194      0.12%     83.72% # Class of committed instruction (Count)
system.cpu.commit.committedInstType_0::SimdMult            0      0.00%     83.72% # Class of committed instruction (Count)
system.cpu.commit.committedInstType_0::SimdMultAcc            0      0.00%     83.72% # Class of committed instruction (Count)
system.cpu.commit.committedInstType_0::SimdMatMultAcc            0      0.00%     83.72% # Class of committed instruction (Count)
system.cpu.commit.committedInstType_0::SimdShift         2170      0.01%     83.73% # Class of committed instruction (Count)
system.cpu.commit.committedInstType_0::SimdShiftAcc            0      0.00%     83.73% # Class of committed instruction (Count)
system.cpu.commit.committedInstType_0::SimdDiv            0      0.00%     83.73% # Class of committed instruction (Count)
system.cpu.commit.committedInstType_0::SimdSqrt            0      0.00%     83.73% # Class of committed instruction (Count)
system.cpu.commit.committedInstType_0::SimdFloatAdd         4802      0.02%     83.75% # Class of committed instruction (Count)
system.cpu.commit.committedInstType_0::SimdFloatAlu            0      0.00%     83.75% # Class of committed instruction (Count)
system.cpu.commit.committedInstType_0::SimdFloatCmp            0      0.00%     83.75% # Class of committed instruction (Count)
system.cpu.commit.committedInstType_0::SimdFloatCvt            4      0.00%     83.75% # Class of committed instruction (Count)
system.cpu.commit.committedInstType_0::SimdFloatDiv            2      0.00%     83.75% # Class of committed instruction (Count)
system.cpu.commit.committedInstType_0::SimdFloatMisc            0      0.00%     83.75% # Class of committed instruction (Count)
system.cpu.commit.committedInstType_0::SimdFloatMult            0      0.00%     83.75% # Class of committed instruction (Count)
system.cpu.commit.committedInstType_0::SimdFloatMultAcc            0      0.00%     83.75% # Class of committed instruction (Count)
system.cpu.commit.committedInstType_0::SimdFloatMatMultAcc            0      0.00%     83.75% # Class of committed instruction (Count)
system.cpu.commit.committedInstType_0::SimdFloatSqrt            0      0.00%     83.75% # Class of committed instruction (Count)
system.cpu.commit.committedInstType_0::SimdReduceAdd            0      0.00%     83.75% # Class of committed instruction (Count)
system.cpu.commit.committedInstType_0::SimdReduceAlu            0      0.00%     83.75% # Class of committed instruction (Count)
system.cpu.commit.committedInstType_0::SimdReduceCmp            0      0.00%     83.75% # Class of committed instruction (Count)
system.cpu.commit.committedInstType_0::SimdFloatReduceAdd            0      0.00%     83.75% # Class of committed instruction (Count)
system.cpu.commit.committedInstType_0::SimdFloatReduceCmp            0      0.00%     83.75% # Class of committed instruction (Count)
system.cpu.commit.committedInstType_0::SimdAes            0      0.00%     83.75% # Class of committed instruction (Count)
system.cpu.commit.committedInstType_0::SimdAesMix            0      0.00%     83.75% # Class of committed instruction (Count)
system.cpu.commit.committedInstType_0::SimdSha1Hash            0      0.00%     83.75% # Class of committed instruction (Count)
system.cpu.commit.committedInstType_0::SimdSha1Hash2            0      0.00%     83.75% # Class of committed instruction (Count)
system.cpu.commit.committedInstType_0::SimdSha256Hash            0      0.00%     83.75% # Class of committed instruction (Count)
system.cpu.commit.committedInstType_0::SimdSha256Hash2            0      0.00%     83.75% # Class of committed instruction (Count)
system.cpu.commit.committedInstType_0::SimdShaSigma2            0      0.00%     83.75% # Class of committed instruction (Count)
system.cpu.commit.committedInstType_0::SimdShaSigma3            0      0.00%     83.75% # Class of committed instruction (Count)
system.cpu.commit.committedInstType_0::SimdPredAlu            0      0.00%     83.75% # Class of committed instruction (Count)
system.cpu.commit.committedInstType_0::Matrix            0      0.00%     83.75% # Class of committed instruction (Count)
system.cpu.commit.committedInstType_0::MatrixMov            0      0.00%     83.75% # Class of committed instruction (Count)
system.cpu.commit.committedInstType_0::MatrixOP            0      0.00%     83.75% # Class of committed instruction (Count)
system.cpu.commit.committedInstType_0::MemRead      2813956     12.18%     95.93% # Class of committed instruction (Count)
system.cpu.commit.committedInstType_0::MemWrite       862245      3.73%     99.66% # Class of committed instruction (Count)
system.cpu.commit.committedInstType_0::FloatMemRead        47667      0.21%     99.86% # Class of committed instruction (Count)
system.cpu.commit.committedInstType_0::FloatMemWrite        31406      0.14%    100.00% # Class of committed instruction (Count)
system.cpu.commit.committedInstType_0::IprAccess            0      0.00%    100.00% # Class of committed instruction (Count)
system.cpu.commit.committedInstType_0::InstPrefetch            0      0.00%    100.00% # Class of committed instruction (Count)
system.cpu.commit.committedInstType_0::SimdUnitStrideLoad            0      0.00%    100.00% # Class of committed instruction (Count)
system.cpu.commit.committedInstType_0::SimdUnitStrideStore            0      0.00%    100.00% # Class of committed instruction (Count)
system.cpu.commit.committedInstType_0::SimdUnitStrideMaskLoad            0      0.00%    100.00% # Class of committed instruction (Count)
system.cpu.commit.committedInstType_0::SimdUnitStrideMaskStore            0      0.00%    100.00% # Class of committed instruction (Count)
system.cpu.commit.committedInstType_0::SimdStridedLoad            0      0.00%    100.00% # Class of committed instruction (Count)
system.cpu.commit.committedInstType_0::SimdStridedStore            0      0.00%    100.00% # Class of committed instruction (Count)
system.cpu.commit.committedInstType_0::SimdIndexedLoad            0      0.00%    100.00% # Class of committed instruction (Count)
system.cpu.commit.committedInstType_0::SimdIndexedStore            0      0.00%    100.00% # Class of committed instruction (Count)
system.cpu.commit.committedInstType_0::SimdWholeRegisterLoad            0      0.00%    100.00% # Class of committed instruction (Count)
system.cpu.commit.committedInstType_0::SimdWholeRegisterStore            0      0.00%    100.00% # Class of committed instruction (Count)
system.cpu.commit.committedInstType_0::SimdUnitStrideFaultOnlyFirstLoad            0      0.00%    100.00% # Class of committed instruction (Count)
system.cpu.commit.committedInstType_0::SimdUnitStrideSegmentedLoad            0      0.00%    100.00% # Class of committed instruction (Count)
system.cpu.commit.committedInstType_0::SimdUnitStrideSegmentedStore            0      0.00%    100.00% # Class of committed instruction (Count)
system.cpu.commit.committedInstType_0::SimdExt            0      0.00%    100.00% # Class of committed instruction (Count)
system.cpu.commit.committedInstType_0::SimdFloatExt            0      0.00%    100.00% # Class of committed instruction (Count)
system.cpu.commit.committedInstType_0::SimdConfig            0      0.00%    100.00% # Class of committed instruction (Count)
system.cpu.commit.committedInstType_0::total     23111553                       # Class of committed instruction (Count)
system.cpu.commit.commitEligibleSamples       1604654                       # number cycles where commit BW limit reached (Cycle)
system.cpu.commitStats0.numInsts             12147927                       # Number of instructions committed (thread level) (Count)
system.cpu.commitStats0.numOps               23111553                       # Number of ops (including micro ops) committed (thread level) (Count)
system.cpu.commitStats0.numInstsNotNOP       12147927                       # Number of instructions committed excluding NOPs or prefetches (Count)
system.cpu.commitStats0.numOpsNotNOP         23111553                       # Number of Ops (including micro ops) Simulated (Count)
system.cpu.commitStats0.cpi                  0.766708                       # CPI: cycles per instruction (thread level) ((Cycle/Count))
system.cpu.commitStats0.ipc                  1.304278                       # IPC: instructions per cycle (thread level) ((Count/Cycle))
system.cpu.commitStats0.numMemRefs            3755274                       # Number of memory references committed (Count)
system.cpu.commitStats0.numFpInsts             229203                       # Number of float instructions (Count)
system.cpu.commitStats0.numIntInsts          22793474                       # Number of integer instructions (Count)
system.cpu.commitStats0.numLoadInsts          2861623                       # Number of load instructions (Count)
system.cpu.commitStats0.numStoreInsts          893651                       # Number of store instructions (Count)
system.cpu.commitStats0.numVecInsts                 0                       # Number of vector instructions (Count)
system.cpu.commitStats0.committedInstType::No_OpClass       124148      0.54%      0.54% # Class of committed instruction. (Count)
system.cpu.commitStats0.committedInstType::IntAlu     18856295     81.59%     82.13% # Class of committed instruction. (Count)
system.cpu.commitStats0.committedInstType::IntMult        18796      0.08%     82.21% # Class of committed instruction. (Count)
system.cpu.commitStats0.committedInstType::IntDiv       210906      0.91%     83.12% # Class of committed instruction. (Count)
system.cpu.commitStats0.committedInstType::FloatAdd        26795      0.12%     83.24% # Class of committed instruction. (Count)
system.cpu.commitStats0.committedInstType::FloatCmp            0      0.00%     83.24% # Class of committed instruction. (Count)
system.cpu.commitStats0.committedInstType::FloatCvt         1632      0.01%     83.24% # Class of committed instruction. (Count)
system.cpu.commitStats0.committedInstType::FloatMult            0      0.00%     83.24% # Class of committed instruction. (Count)
system.cpu.commitStats0.committedInstType::FloatMultAcc            0      0.00%     83.24% # Class of committed instruction. (Count)
system.cpu.commitStats0.committedInstType::FloatDiv            0      0.00%     83.24% # Class of committed instruction. (Count)
system.cpu.commitStats0.committedInstType::FloatMisc            0      0.00%     83.24% # Class of committed instruction. (Count)
system.cpu.commitStats0.committedInstType::FloatSqrt            0      0.00%     83.24% # Class of committed instruction. (Count)
system.cpu.commitStats0.committedInstType::SimdAdd         6830      0.03%     83.27% # Class of committed instruction. (Count)
system.cpu.commitStats0.committedInstType::SimdAddAcc            0      0.00%     83.27% # Class of committed instruction. (Count)
system.cpu.commitStats0.committedInstType::SimdAlu        51957      0.22%     83.50% # Class of committed instruction. (Count)
system.cpu.commitStats0.committedInstType::SimdCmp            6      0.00%     83.50% # Class of committed instruction. (Count)
system.cpu.commitStats0.committedInstType::SimdCvt        23742      0.10%     83.60% # Class of committed instruction. (Count)
system.cpu.commitStats0.committedInstType::SimdMisc        28194      0.12%     83.72% # Class of committed instruction. (Count)
system.cpu.commitStats0.committedInstType::SimdMult            0      0.00%     83.72% # Class of committed instruction. (Count)
system.cpu.commitStats0.committedInstType::SimdMultAcc            0      0.00%     83.72% # Class of committed instruction. (Count)
system.cpu.commitStats0.committedInstType::SimdMatMultAcc            0      0.00%     83.72% # Class of committed instruction. (Count)
system.cpu.commitStats0.committedInstType::SimdShift         2170      0.01%     83.73% # Class of committed instruction. (Count)
system.cpu.commitStats0.committedInstType::SimdShiftAcc            0      0.00%     83.73% # Class of committed instruction. (Count)
system.cpu.commitStats0.committedInstType::SimdDiv            0      0.00%     83.73% # Class of committed instruction. (Count)
system.cpu.commitStats0.committedInstType::SimdSqrt            0      0.00%     83.73% # Class of committed instruction. (Count)
system.cpu.commitStats0.committedInstType::SimdFloatAdd         4802      0.02%     83.75% # Class of committed instruction. (Count)
system.cpu.commitStats0.committedInstType::SimdFloatAlu            0      0.00%     83.75% # Class of committed instruction. (Count)
system.cpu.commitStats0.committedInstType::SimdFloatCmp            0      0.00%     83.75% # Class of committed instruction. (Count)
system.cpu.commitStats0.committedInstType::SimdFloatCvt            4      0.00%     83.75% # Class of committed instruction. (Count)
system.cpu.commitStats0.committedInstType::SimdFloatDiv            2      0.00%     83.75% # Class of committed instruction. (Count)
system.cpu.commitStats0.committedInstType::SimdFloatMisc            0      0.00%     83.75% # Class of committed instruction. (Count)
system.cpu.commitStats0.committedInstType::SimdFloatMult            0      0.00%     83.75% # Class of committed instruction. (Count)
system.cpu.commitStats0.committedInstType::SimdFloatMultAcc            0      0.00%     83.75% # Class of committed instruction. (Count)
system.cpu.commitStats0.committedInstType::SimdFloatMatMultAcc            0      0.00%     83.75% # Class of committed instruction. (Count)
system.cpu.commitStats0.committedInstType::SimdFloatSqrt            0      0.00%     83.75% # Class of committed instruction. (Count)
system.cpu.commitStats0.committedInstType::SimdReduceAdd            0      0.00%     83.75% # Class of committed instruction. (Count)
system.cpu.commitStats0.committedInstType::SimdReduceAlu            0      0.00%     83.75% # Class of committed instruction. (Count)
system.cpu.commitStats0.committedInstType::SimdReduceCmp            0      0.00%     83.75% # Class of committed instruction. (Count)
system.cpu.commitStats0.committedInstType::SimdFloatReduceAdd            0      0.00%     83.75% # Class of committed instruction. (Count)
system.cpu.commitStats0.committedInstType::SimdFloatReduceCmp            0      0.00%     83.75% # Class of committed instruction. (Count)
system.cpu.commitStats0.committedInstType::SimdAes            0      0.00%     83.75% # Class of committed instruction. (Count)
system.cpu.commitStats0.committedInstType::SimdAesMix            0      0.00%     83.75% # Class of committed instruction. (Count)
system.cpu.commitStats0.committedInstType::SimdSha1Hash            0      0.00%     83.75% # Class of committed instruction. (Count)
system.cpu.commitStats0.committedInstType::SimdSha1Hash2            0      0.00%     83.75% # Class of committed instruction. (Count)
system.cpu.commitStats0.committedInstType::SimdSha256Hash            0      0.00%     83.75% # Class of committed instruction. (Count)
system.cpu.commitStats0.committedInstType::SimdSha256Hash2            0      0.00%     83.75% # Class of committed instruction. (Count)
system.cpu.commitStats0.committedInstType::SimdShaSigma2            0      0.00%     83.75% # Class of committed instruction. (Count)
system.cpu.commitStats0.committedInstType::SimdShaSigma3            0      0.00%     83.75% # Class of committed instruction. (Count)
system.cpu.commitStats0.committedInstType::SimdPredAlu            0      0.00%     83.75% # Class of committed instruction. (Count)
system.cpu.commitStats0.committedInstType::Matrix            0      0.00%     83.75% # Class of committed instruction. (Count)
system.cpu.commitStats0.committedInstType::MatrixMov            0      0.00%     83.75% # Class of committed instruction. (Count)
system.cpu.commitStats0.committedInstType::MatrixOP            0      0.00%     83.75% # Class of committed instruction. (Count)
system.cpu.commitStats0.committedInstType::MemRead      2813956     12.18%     95.93% # Class of committed instruction. (Count)
system.cpu.commitStats0.committedInstType::MemWrite       862245      3.73%     99.66% # Class of committed instruction. (Count)
system.cpu.commitStats0.committedInstType::FloatMemRead        47667      0.21%     99.86% # Class of committed instruction. (Count)
system.cpu.commitStats0.committedInstType::FloatMemWrite        31406      0.14%    100.00% # Class of committed instruction. (Count)
system.cpu.commitStats0.committedInstType::IprAccess            0      0.00%    100.00% # Class of committed instruction. (Count)
system.cpu.commitStats0.committedInstType::InstPrefetch            0      0.00%    100.00% # Class of committed instruction. (Count)
system.cpu.commitStats0.committedInstType::SimdUnitStrideLoad            0      0.00%    100.00% # Class of committed instruction. (Count)
system.cpu.commitStats0.committedInstType::SimdUnitStrideStore            0      0.00%    100.00% # Class of committed instruction. (Count)
system.cpu.commitStats0.committedInstType::SimdUnitStrideMaskLoad            0      0.00%    100.00% # Class of committed instruction. (Count)
system.cpu.commitStats0.committedInstType::SimdUnitStrideMaskStore            0      0.00%    100.00% # Class of committed instruction. (Count)
system.cpu.commitStats0.committedInstType::SimdStridedLoad            0      0.00%    100.00% # Class of committed instruction. (Count)
system.cpu.commitStats0.committedInstType::SimdStridedStore            0      0.00%    100.00% # Class of committed instruction. (Count)
system.cpu.commitStats0.committedInstType::SimdIndexedLoad            0      0.00%    100.00% # Class of committed instruction. (Count)
system.cpu.commitStats0.committedInstType::SimdIndexedStore            0      0.00%    100.00% # Class of committed instruction. (Count)
system.cpu.commitStats0.committedInstType::SimdWholeRegisterLoad            0      0.00%    100.00% # Class of committed instruction. (Count)
system.cpu.commitStats0.committedInstType::SimdWholeRegisterStore            0      0.00%    100.00% # Class of committed instruction. (Count)
system.cpu.commitStats0.committedInstType::SimdUnitStrideFaultOnlyFirstLoad            0      0.00%    100.00% # Class of committed instruction. (Count)
system.cpu.commitStats0.committedInstType::SimdUnitStrideSegmentedLoad            0      0.00%    100.00% # Class of committed instruction. (Count)
system.cpu.commitStats0.committedInstType::SimdUnitStrideSegmentedStore            0      0.00%    100.00% # Class of committed instruction. (Count)
system.cpu.commitStats0.committedInstType::SimdExt            0      0.00%    100.00% # Class of committed instruction. (Count)
system.cpu.commitStats0.committedInstType::SimdFloatExt            0      0.00%    100.00% # Class of committed instruction. (Count)
system.cpu.commitStats0.committedInstType::SimdConfig            0      0.00%    100.00% # Class of committed instruction. (Count)
system.cpu.commitStats0.committedInstType::total     23111553                       # Class of committed instruction. (Count)
system.cpu.commitStats0.committedControl::IsControl      2790813                       # Class of control type instructions committed (Count)
system.cpu.commitStats0.committedControl::IsDirectControl      2685240                       # Class of control type instructions committed (Count)
system.cpu.commitStats0.committedControl::IsIndirectControl       105248                       # Class of control type instructions committed (Count)
system.cpu.commitStats0.committedControl::IsCondControl      2364027                       # Class of control type instructions committed (Count)
system.cpu.commitStats0.committedControl::IsUncondControl       426461                       # Class of control type instructions committed (Count)
system.cpu.commitStats0.committedControl::IsCall        71904                       # Class of control type instructions committed (Count)
system.cpu.commitStats0.committedControl::IsReturn        71899                       # Class of control type instructions committed (Count)
system.cpu.decode.idleCycles                  3650820                       # Number of cycles decode is idle (Cycle)
system.cpu.decode.blockedCycles               1243589                       # Number of cycles decode is blocked (Cycle)
system.cpu.decode.runCycles                   3915393                       # Number of cycles decode is running (Cycle)
system.cpu.decode.unblockCycles                374325                       # Number of cycles decode is unblocking (Cycle)
system.cpu.decode.squashCycles                  95673                       # Number of cycles decode is squashing (Cycle)
system.cpu.decode.branchResolved              1909249                       # Number of times decode resolved a branch (Count)
system.cpu.decode.branchMispred                  2758                       # Number of times decode detected a branch misprediction (Count)
system.cpu.decode.decodedInsts               28236922                       # Number of instructions handled by decode (Count)
system.cpu.decode.squashedInsts                 14739                       # Number of squashed instructions handled by decode (Count)
system.cpu.executeStats0.numInsts            25393279                       # Number of executed instructions (Count)
system.cpu.executeStats0.numNop                     0                       # Number of nop insts executed (Count)
system.cpu.executeStats0.numBranches          2977446                       # Number of branches executed (Count)
system.cpu.executeStats0.numLoadInsts         3120503                       # Number of load instructions executed (Count)
system.cpu.executeStats0.numStoreInsts         938498                       # Number of stores executed (Count)
system.cpu.executeStats0.instRate            2.726383                       # Inst execution rate ((Count/Cycle))
system.cpu.executeStats0.numCCRegReads       15336645                       # Number of times the CC registers were read (Count)
system.cpu.executeStats0.numCCRegWrites      10207080                       # Number of times the CC registers were written (Count)
system.cpu.executeStats0.numFpRegReads         306319                       # Number of times the floating registers were read (Count)
system.cpu.executeStats0.numFpRegWrites        199204                       # Number of times the floating registers were written (Count)
system.cpu.executeStats0.numIntRegReads      30981333                       # Number of times the integer registers were read (Count)
system.cpu.executeStats0.numIntRegWrites     19139360                       # Number of times the integer registers were written (Count)
system.cpu.executeStats0.numMemRefs           4059001                       # Number of memory refs (Count)
system.cpu.executeStats0.numMiscRegReads     10025999                       # Number of times the Misc registers were read (Count)
system.cpu.executeStats0.numMiscRegWrites          918                       # Number of times the Misc registers were written (Count)
system.cpu.executeStats0.numVecAluAccesses            0                       # Number of vector alu accesses (Count)
system.cpu.executeStats0.numDiscardedOps            0                       # Number of ops (including micro ops) which were discarded before commit (Count)
system.cpu.fetch.predictedBranches            2145729                       # Number of branches that fetch has predicted taken (Count)
system.cpu.fetch.cycles                       5584752                       # Number of cycles fetch has run and was not squashing or blocked (Cycle)
system.cpu.fetch.squashCycles                  196758                       # Number of cycles fetch has spent squashing (Cycle)
system.cpu.fetch.miscStallCycles                  317                       # Number of cycles fetch has spent waiting on interrupts, or bad addresses, or out of MSHRs (Cycle)
system.cpu.fetch.pendingTrapStallCycles          2987                       # Number of stall cycles due to pending traps (Cycle)
system.cpu.fetch.cacheLines                   2248678                       # Number of cache lines fetched (Count)
[...]
system.mem_ctrl.dram.bwRead::total          319881518                       # Total read bandwidth from this memory ((Byte/Second))
system.mem_ctrl.dram.bwInstRead::cpu.inst     85507639                       # Instruction read bandwidth from this memory ((Byte/Second))
system.mem_ctrl.dram.bwInstRead::total       85507639                       # Instruction read bandwidth from this memory ((Byte/Second))
system.mem_ctrl.dram.bwWrite::writebacks     85904733                       # Write bandwidth from this memory ((Byte/Second))
system.mem_ctrl.dram.bwWrite::total          85904733                       # Write bandwidth from this memory ((Byte/Second))
system.mem_ctrl.dram.bwTotal::writebacks     85904733                       # Total bandwidth to/from this memory ((Byte/Second))
system.mem_ctrl.dram.bwTotal::cpu.inst       85507639                       # Total bandwidth to/from this memory ((Byte/Second))
system.mem_ctrl.dram.bwTotal::cpu.data      234373879                       # Total bandwidth to/from this memory ((Byte/Second))
system.mem_ctrl.dram.bwTotal::total         405786252                       # Total bandwidth to/from this memory ((Byte/Second))
system.mem_ctrl.dram.readBursts                  6322                       # Number of DRAM read bursts (Count)
system.mem_ctrl.dram.writeBursts                 1551                       # Number of DRAM write bursts (Count)
system.mem_ctrl.dram.perBankRdBursts::0           876                       # Per bank write bursts (Count)
system.mem_ctrl.dram.perBankRdBursts::1           503                       # Per bank write bursts (Count)
system.mem_ctrl.dram.perBankRdBursts::2           377                       # Per bank write bursts (Count)
system.mem_ctrl.dram.perBankRdBursts::3           403                       # Per bank write bursts (Count)
system.mem_ctrl.dram.perBankRdBursts::4           349                       # Per bank write bursts (Count)
system.mem_ctrl.dram.perBankRdBursts::5           312                       # Per bank write bursts (Count)
system.mem_ctrl.dram.perBankRdBursts::6           542                       # Per bank write bursts (Count)
system.mem_ctrl.dram.perBankRdBursts::7           334                       # Per bank write bursts (Count)
system.mem_ctrl.dram.perBankRdBursts::8           559                       # Per bank write bursts (Count)
system.mem_ctrl.dram.perBankRdBursts::9           426                       # Per bank write bursts (Count)
system.mem_ctrl.dram.perBankRdBursts::10          217                       # Per bank write bursts (Count)
system.mem_ctrl.dram.perBankRdBursts::11          290                       # Per bank write bursts (Count)
system.mem_ctrl.dram.perBankRdBursts::12          174                       # Per bank write bursts (Count)
system.mem_ctrl.dram.perBankRdBursts::13          409                       # Per bank write bursts (Count)
system.mem_ctrl.dram.perBankRdBursts::14          270                       # Per bank write bursts (Count)
system.mem_ctrl.dram.perBankRdBursts::15          281                       # Per bank write bursts (Count)
system.mem_ctrl.dram.perBankWrBursts::0           560                       # Per bank write bursts (Count)
system.mem_ctrl.dram.perBankWrBursts::1           366                       # Per bank write bursts (Count)
system.mem_ctrl.dram.perBankWrBursts::2           144                       # Per bank write bursts (Count)
system.mem_ctrl.dram.perBankWrBursts::3            96                       # Per bank write bursts (Count)
system.mem_ctrl.dram.perBankWrBursts::4             5                       # Per bank write bursts (Count)
system.mem_ctrl.dram.perBankWrBursts::5             0                       # Per bank write bursts (Count)
system.mem_ctrl.dram.perBankWrBursts::6            13                       # Per bank write bursts (Count)
system.mem_ctrl.dram.perBankWrBursts::7             2                       # Per bank write bursts (Count)
system.mem_ctrl.dram.perBankWrBursts::8            23                       # Per bank write bursts (Count)
system.mem_ctrl.dram.perBankWrBursts::9            64                       # Per bank write bursts (Count)
system.mem_ctrl.dram.perBankWrBursts::10            1                       # Per bank write bursts (Count)
system.mem_ctrl.dram.perBankWrBursts::11            0                       # Per bank write bursts (Count)
system.mem_ctrl.dram.perBankWrBursts::12           29                       # Per bank write bursts (Count)
system.mem_ctrl.dram.perBankWrBursts::13           32                       # Per bank write bursts (Count)
system.mem_ctrl.dram.perBankWrBursts::14           32                       # Per bank write bursts (Count)
system.mem_ctrl.dram.perBankWrBursts::15          184                       # Per bank write bursts (Count)
system.mem_ctrl.dram.totQLat                 78889702                       # Total ticks spent queuing (Tick)
system.mem_ctrl.dram.totBusLat               31610000                       # Total ticks spent in databus transfers (Tick)
system.mem_ctrl.dram.totMemAccLat           197427202                       # Total ticks spent from burst creation until serviced by the DRAM (Tick)
system.mem_ctrl.dram.avgQLat                 12478.60                       # Average queueing delay per DRAM burst ((Tick/Count))
system.mem_ctrl.dram.avgBusLat                5000.00                       # Average bus latency per DRAM burst ((Tick/Count))
system.mem_ctrl.dram.avgMemAccLat            31228.60                       # Average memory access latency per DRAM burst ((Tick/Count))
system.mem_ctrl.dram.readRowHits                 4156                       # Number of row buffer hits during reads (Count)
system.mem_ctrl.dram.writeRowHits                1370                       # Number of row buffer hits during writes (Count)
system.mem_ctrl.dram.readRowHitRate             65.74                       # Row buffer hit rate for reads (Ratio)
system.mem_ctrl.dram.writeRowHitRate            88.33                       # Row buffer hit rate for writes (Ratio)
system.mem_ctrl.dram.bytesPerActivate::samples         2351                       # Bytes accessed per row activation (Byte)
system.mem_ctrl.dram.bytesPerActivate::mean   214.431306                       # Bytes accessed per row activation (Byte)
system.mem_ctrl.dram.bytesPerActivate::gmean   142.386360                       # Bytes accessed per row activation (Byte)
system.mem_ctrl.dram.bytesPerActivate::stdev   233.403392                       # Bytes accessed per row activation (Byte)
system.mem_ctrl.dram.bytesPerActivate::0-127          967     41.13%     41.13% # Bytes accessed per row activation (Byte)
system.mem_ctrl.dram.bytesPerActivate::128-255          745     31.69%     72.82% # Bytes accessed per row activation (Byte)
system.mem_ctrl.dram.bytesPerActivate::256-383          237     10.08%     82.90% # Bytes accessed per row activation (Byte)
system.mem_ctrl.dram.bytesPerActivate::384-511          146      6.21%     89.11% # Bytes accessed per row activation (Byte)
system.mem_ctrl.dram.bytesPerActivate::512-639           69      2.93%     92.05% # Bytes accessed per row activation (Byte)
system.mem_ctrl.dram.bytesPerActivate::640-767           47      2.00%     94.05% # Bytes accessed per row activation (Byte)
system.mem_ctrl.dram.bytesPerActivate::768-895           28      1.19%     95.24% # Bytes accessed per row activation (Byte)
system.mem_ctrl.dram.bytesPerActivate::896-1023           35      1.49%     96.72% # Bytes accessed per row activation (Byte)
system.mem_ctrl.dram.bytesPerActivate::1024-1151           77      3.28%    100.00% # Bytes accessed per row activation (Byte)
system.mem_ctrl.dram.bytesPerActivate::total         2351                       # Bytes accessed per row activation (Byte)
system.mem_ctrl.dram.dramBytesRead             404608                       # Total bytes read (Byte)
system.mem_ctrl.dram.dramBytesWritten           99264                       # Total bytes written (Byte)
system.mem_ctrl.dram.avgRdBW               278.936684                       # Average DRAM read bandwidth in MiBytes/s ((Byte/Second))
system.mem_ctrl.dram.avgWrBW                68.432584                       # Average DRAM write bandwidth in MiBytes/s ((Byte/Second))
system.mem_ctrl.dram.peakBW                  12800.00                       # Theoretical peak bandwidth in MiByte/s ((Byte/Second))
system.mem_ctrl.dram.busUtil                     2.71                       # Data bus utilization in percentage (Ratio)
system.mem_ctrl.dram.busUtilRead                 2.18                       # Data bus utilization in percentage for reads (Ratio)
system.mem_ctrl.dram.busUtilWrite                0.53                       # Data bus utilization in percentage for writes (Ratio)
system.mem_ctrl.dram.pageHitRate                70.19                       # Row buffer hit rate, read and write combined (Ratio)
system.mem_ctrl.dram.power_state.pwrStateResidencyTicks::UNDEFINED   1450537069                       # Cumulative time (in ticks) in various power states (Tick)
system.mem_ctrl.dram.rank0.actEnergy          8896440                       # Energy for activate commands per rank (pJ) (Joule)
system.mem_ctrl.dram.rank0.preEnergy          4732365                       # Energy for precharge commands per rank (pJ) (Joule)
system.mem_ctrl.dram.rank0.readEnergy        26389440                       # Energy for read commands per rank (pJ) (Joule)
system.mem_ctrl.dram.rank0.writeEnergy        6190920                       # Energy for write commands per rank (pJ) (Joule)
system.mem_ctrl.dram.rank0.refreshEnergy 114937680.000000                       # Energy for refresh commands per rank (pJ) (Joule)
system.mem_ctrl.dram.rank0.actBackEnergy    623935110                       # Energy for active background per rank (pJ) (Joule)
system.mem_ctrl.dram.rank0.preBackEnergy     31587360                       # Energy for precharge background per rank (pJ) (Joule)
system.mem_ctrl.dram.rank0.actPowerDownEnergy            0                       # Energy for active power-down per rank (pJ) (Joule)
system.mem_ctrl.dram.rank0.prePowerDownEnergy            0                       # Energy for precharge power-down per rank (pJ) (Joule)
system.mem_ctrl.dram.rank0.selfRefreshEnergy            0                       # Energy for self refresh per rank (pJ) (Joule)
system.mem_ctrl.dram.rank0.totalEnergy      816669315                       # Total energy per rank (pJ) (Joule)
system.mem_ctrl.dram.rank0.averagePower    563.011682                       # Core power per rank (mW) (Watt)
system.mem_ctrl.dram.rank0.totalIdleTime            0                       # Total Idle time Per DRAM Rank (Tick)
system.mem_ctrl.dram.rank0.pwrStateTime::IDLE     76796678                       # Time in different power states (Tick)
system.mem_ctrl.dram.rank0.pwrStateTime::REF     48620000                       # Time in different power states (Tick)
system.mem_ctrl.dram.rank0.pwrStateTime::SREF            0                       # Time in different power states (Tick)
system.mem_ctrl.dram.rank0.pwrStateTime::PRE_PDN            0                       # Time in different power states (Tick)
system.mem_ctrl.dram.rank0.pwrStateTime::ACT   1325120391                       # Time in different power states (Tick)
system.mem_ctrl.dram.rank0.pwrStateTime::ACT_PDN            0                       # Time in different power states (Tick)
system.mem_ctrl.dram.rank1.actEnergy          7861140                       # Energy for activate commands per rank (pJ) (Joule)
system.mem_ctrl.dram.rank1.preEnergy          4189680                       # Energy for precharge commands per rank (pJ) (Joule)
system.mem_ctrl.dram.rank1.readEnergy        18749640                       # Energy for read commands per rank (pJ) (Joule)
system.mem_ctrl.dram.rank1.writeEnergy        1905300                       # Energy for write commands per rank (pJ) (Joule)
system.mem_ctrl.dram.rank1.refreshEnergy 114937680.000000                       # Energy for refresh commands per rank (pJ) (Joule)
system.mem_ctrl.dram.rank1.actBackEnergy    578813340                       # Energy for active background per rank (pJ) (Joule)
system.mem_ctrl.dram.rank1.preBackEnergy     69584640                       # Energy for precharge background per rank (pJ) (Joule)
system.mem_ctrl.dram.rank1.actPowerDownEnergy            0                       # Energy for active power-down per rank (pJ) (Joule)
system.mem_ctrl.dram.rank1.prePowerDownEnergy            0                       # Energy for precharge power-down per rank (pJ) (Joule)
system.mem_ctrl.dram.rank1.selfRefreshEnergy            0                       # Energy for self refresh per rank (pJ) (Joule)
system.mem_ctrl.dram.rank1.totalEnergy      796041420                       # Total energy per rank (pJ) (Joule)
system.mem_ctrl.dram.rank1.averagePower    548.790815                       # Core power per rank (mW) (Watt)
system.mem_ctrl.dram.rank1.totalIdleTime            0                       # Total Idle time Per DRAM Rank (Tick)
system.mem_ctrl.dram.rank1.pwrStateTime::IDLE    175838009                       # Time in different power states (Tick)
system.mem_ctrl.dram.rank1.pwrStateTime::REF     48620000                       # Time in different power states (Tick)
system.mem_ctrl.dram.rank1.pwrStateTime::SREF            0                       # Time in different power states (Tick)
system.mem_ctrl.dram.rank1.pwrStateTime::PRE_PDN            0                       # Time in different power states (Tick)
system.mem_ctrl.dram.rank1.pwrStateTime::ACT   1226079060                       # Time in different power states (Tick)
system.mem_ctrl.dram.rank1.pwrStateTime::ACT_PDN            0                       # Time in different power states (Tick)
system.mem_ctrl.power_state.pwrStateResidencyTicks::UNDEFINED   1450537069                       # Cumulative time (in ticks) in various power states (Tick)
system.membus.transDist::ReadResp                6038                       # Transaction distribution (Count)
system.membus.transDist::WritebackDirty          1947                       # Transaction distribution (Count)
system.membus.transDist::CleanEvict              5303                       # Transaction distribution (Count)
system.membus.transDist::UpgradeReq                 1                       # Transaction distribution (Count)
system.membus.transDist::ReadExReq               1213                       # Transaction distribution (Count)
system.membus.transDist::ReadExResp              1213                       # Transaction distribution (Count)
system.membus.transDist::ReadSharedReq           6037                       # Transaction distribution (Count)
system.membus.pktCount_system.cpu.l1d.mem_side_port::system.mem_ctrl.port        15937                       # Packet count per connected requestor and responder (Count)
system.membus.pktCount_system.cpu.l1d.mem_side_port::total        15937                       # Packet count per connected requestor and responder (Count)
system.membus.pktCount_system.cpu.l1i.mem_side_port::system.mem_ctrl.port         5814                       # Packet count per connected requestor and responder (Count)
system.membus.pktCount_system.cpu.l1i.mem_side_port::total         5814                       # Packet count per connected requestor and responder (Count)
system.membus.pktCount::total                   21751                       # Packet count per connected requestor and responder (Count)
system.membus.pktSize_system.cpu.l1d.mem_side_port::system.mem_ctrl.port       464576                       # Cumulative packet size per connected requestor and responder (Byte)
system.membus.pktSize_system.cpu.l1d.mem_side_port::total       464576                       # Cumulative packet size per connected requestor and responder (Byte)
system.membus.pktSize_system.cpu.l1i.mem_side_port::system.mem_ctrl.port       124032                       # Cumulative packet size per connected requestor and responder (Byte)
system.membus.pktSize_system.cpu.l1i.mem_side_port::total       124032                       # Cumulative packet size per connected requestor and responder (Byte)
system.membus.pktSize::total                   588608                       # Cumulative packet size per connected requestor and responder (Byte)
system.membus.snoops                                1                       # Total snoops (Count)
system.membus.snoopTraffic                         64                       # Total snoop traffic (Byte)
system.membus.snoopFanout::samples               7251                       # Request fanout histogram (Count)
system.membus.snoopFanout::mean              0.003034                       # Request fanout histogram (Count)
system.membus.snoopFanout::stdev             0.055003                       # Request fanout histogram (Count)
system.membus.snoopFanout::underflows               0      0.00%      0.00% # Request fanout histogram (Count)
system.membus.snoopFanout::0                     7229     99.70%     99.70% # Request fanout histogram (Count)
system.membus.snoopFanout::1                       22      0.30%    100.00% # Request fanout histogram (Count)
system.membus.snoopFanout::2                        0      0.00%    100.00% # Request fanout histogram (Count)
system.membus.snoopFanout::overflows                0      0.00%    100.00% # Request fanout histogram (Count)
system.membus.snoopFanout::min_value                0                       # Request fanout histogram (Count)
system.membus.snoopFanout::max_value                1                       # Request fanout histogram (Count)
system.membus.snoopFanout::total                 7251                       # Request fanout histogram (Count)
system.membus.power_state.pwrStateResidencyTicks::UNDEFINED   1450537069                       # Cumulative time (in ticks) in various power states (Tick)
system.membus.reqLayer2.occupancy           297179237                       # Layer occupancy (ticks) (Tick)
system.membus.reqLayer2.utilization               0.2                       # Layer utilization (Ratio)
system.membus.respLayer2.occupancy          359110978                       # Layer occupancy (ticks) (Tick)
system.membus.respLayer2.utilization              0.2                       # Layer utilization (Ratio)
system.membus.respLayer3.occupancy          132213176                       # Layer occupancy (ticks) (Tick)
system.membus.respLayer3.utilization              0.1                       # Layer utilization (Ratio)
system.membus.snoop_filter.totRequests          14501                       # Total number of requests made to the snoop filter. (Count)
system.membus.snoop_filter.hitSingleRequests         7251                       # Number of requests hitting in the snoop filter with a single holder of the requested data. (Count)
system.membus.snoop_filter.hitMultiRequests           21                       # Number of requests hitting in the snoop filter with multiple (>1) holders of the requested data. (Count)
system.membus.snoop_filter.totSnoops                0                       # Total number of snoops made to the snoop filter. (Count)
system.membus.snoop_filter.hitSingleSnoops            0                       # Number of snoops hitting in the snoop filter with a single holder of the requested data. (Count)
system.membus.snoop_filter.hitMultiSnoops            0                       # Number of snoops hitting in the snoop filter with multiple (>1) holders of the requested data. (Count)
system.workload.inst.arm                            0                       # number of arm instructions executed (Count)
system.workload.inst.quiesce                        0                       # number of quiesce instructions executed (Count)

---------- End Simulation Statistics   ----------
