
---------- Begin Simulation Statistics ----------
simSeconds                                   2.348240                       # Number of seconds simulated (Second)
simTicks                                 2348240145862                       # Number of ticks simulated (Tick)
finalTick                                2348240145862                       # Number of ticks from beginning of simulation (restored from checkpoints and never reset) (Tick)
simFreq                                  1000000000000                       # The number of ticks per simulated second ((Tick/Second))
hostSeconds                                   1156.06                       # Real time elapsed on the host (Second)
hostTickRate                               2031248825                       # The number of ticks simulated per host second (ticks/s) ((Tick/Second))
hostMemory                                    8698064                       # Number of bytes of host memory used (Byte)
simInsts                                    234417668                       # Number of instructions simulated (Count)
simOps                                      423740086                       # Number of ops (including micro ops) simulated (Count)
hostInstRate                                   202773                       # Simulator instruction rate (inst/s) ((Count/Second))
hostOpRate                                     366539                       # Simulator op (including micro ops) rate (op/s) ((Count/Second))
system.clk_domain.clock                         13333                       # Clock period in ticks (Tick)
system.clk_domain.voltage_domain.voltage            1                       # Voltage in Volts (Volt)
system.cpu.numCycles                        176122415                       # Number of cpu cycles simulated (Cycle)
system.cpu.cpi                               0.751319                       # CPI: cycles per instruction (core level) ((Cycle/Count))
system.cpu.ipc                               1.330993                       # IPC: instructions per cycle (core level) ((Count/Cycle))
system.cpu.numWorkItemsStarted                      0                       # Number of work items this cpu started (Count)
system.cpu.numWorkItemsCompleted                    0                       # Number of work items this cpu completed (Count)
system.cpu.instsAdded                       560892650                       # Number of instructions added to the IQ (excludes non-spec) (Count)
system.cpu.nonSpecInstsAdded                    91995                       # Number of non-speculative instructions added to the IQ (Count)
system.cpu.instsIssued                      521985883                       # Number of instructions issued (Count)
system.cpu.squashedInstsIssued                3296560                       # Number of squashed instructions issued (Count)
system.cpu.squashedInstsExamined            137244548                       # Number of squashed instructions iterated over during squash; mainly for profiling (Count)
system.cpu.squashedOperandsExamined         200321995                       # Number of squashed operands that are examined and possibly removed from graph (Count)
system.cpu.squashedNonSpecRemoved                5247                       # Number of squashed non-spec instructions that were removed (Count)
system.cpu.numIssuedDist::samples           175300179                       # Number of insts issued each cycle (Count)
system.cpu.numIssuedDist::mean               2.977669                       # Number of insts issued each cycle (Count)
system.cpu.numIssuedDist::stdev              2.817410                       # Number of insts issued each cycle (Count)
system.cpu.numIssuedDist::underflows                0      0.00%      0.00% # Number of insts issued each cycle (Count)
system.cpu.numIssuedDist::0                  59914228     34.18%     34.18% # Number of insts issued each cycle (Count)
system.cpu.numIssuedDist::1                  15876720      9.06%     43.23% # Number of insts issued each cycle (Count)
system.cpu.numIssuedDist::2                  14111780      8.05%     51.29% # Number of insts issued each cycle (Count)
system.cpu.numIssuedDist::3                  11063993      6.31%     57.60% # Number of insts issued each cycle (Count)
system.cpu.numIssuedDist::4                  11767603      6.71%     64.31% # Number of insts issued each cycle (Count)
system.cpu.numIssuedDist::5                  12608498      7.19%     71.50% # Number of insts issued each cycle (Count)
system.cpu.numIssuedDist::6                  24652830     14.06%     85.57% # Number of insts issued each cycle (Count)
system.cpu.numIssuedDist::7                  15772474      9.00%     94.56% # Number of insts issued each cycle (Count)
system.cpu.numIssuedDist::8                   9532053      5.44%    100.00% # Number of insts issued each cycle (Count)
system.cpu.numIssuedDist::overflows                 0      0.00%    100.00% # Number of insts issued each cycle (Count)
system.cpu.numIssuedDist::min_value                 0                       # Number of insts issued each cycle (Count)
system.cpu.numIssuedDist::max_value                 8                       # Number of insts issued each cycle (Count)
system.cpu.numIssuedDist::total             175300179                       # Number of insts issued each cycle (Count)
system.cpu.statFuBusy::No_OpClass                   0      0.00%      0.00% # attempts to use FU when none available (Count)
system.cpu.statFuBusy::IntAlu                17508112     93.06%     93.06% # attempts to use FU when none available (Count)
system.cpu.statFuBusy::IntMult                      0      0.00%     93.06% # attempts to use FU when none available (Count)
system.cpu.statFuBusy::IntDiv                       0      0.00%     93.06% # attempts to use FU when none available (Count)
system.cpu.statFuBusy::FloatAdd                 22607      0.12%     93.18% # attempts to use FU when none available (Count)
system.cpu.statFuBusy::FloatCmp                     0      0.00%     93.18% # attempts to use FU when none available (Count)
system.cpu.statFuBusy::FloatCvt                     0      0.00%     93.18% # attempts to use FU when none available (Count)
system.cpu.statFuBusy::FloatMult                    0      0.00%     93.18% # attempts to use FU when none available (Count)
system.cpu.statFuBusy::FloatMultAcc                 0      0.00%     93.18% # attempts to use FU when none available (Count)
system.cpu.statFuBusy::FloatDiv                     0      0.00%     93.18% # attempts to use FU when none available (Count)
system.cpu.statFuBusy::FloatMisc                    0      0.00%     93.18% # attempts to use FU when none available (Count)
system.cpu.statFuBusy::FloatSqrt                    0      0.00%     93.18% # attempts to use FU when none available (Count)
system.cpu.statFuBusy::SimdAdd                      0      0.00%     93.18% # attempts to use FU when none available (Count)
system.cpu.statFuBusy::SimdAddAcc                   0      0.00%     93.18% # attempts to use FU when none available (Count)
system.cpu.statFuBusy::SimdAlu                  58094      0.31%     93.49% # attempts to use FU when none available (Count)
system.cpu.statFuBusy::SimdCmp                      2      0.00%     93.49% # attempts to use FU when none available (Count)
system.cpu.statFuBusy::SimdCvt                    184      0.00%     93.49% # attempts to use FU when none available (Count)
system.cpu.statFuBusy::SimdMisc                    19      0.00%     93.49% # attempts to use FU when none available (Count)
system.cpu.statFuBusy::SimdMult                     0      0.00%     93.49% # attempts to use FU when none available (Count)
system.cpu.statFuBusy::SimdMultAcc                  0      0.00%     93.49% # attempts to use FU when none available (Count)
system.cpu.statFuBusy::SimdMatMultAcc               0      0.00%     93.49% # attempts to use FU when none available (Count)
system.cpu.statFuBusy::SimdShift                   10      0.00%     93.49% # attempts to use FU when none available (Count)
system.cpu.statFuBusy::SimdShiftAcc                 0      0.00%     93.49% # attempts to use FU when none available (Count)
system.cpu.statFuBusy::SimdDiv                      0      0.00%     93.49% # attempts to use FU when none available (Count)
system.cpu.statFuBusy::SimdSqrt                     0      0.00%     93.49% # attempts to use FU when none available (Count)
system.cpu.statFuBusy::SimdFloatAdd             27615      0.15%     93.64% # attempts to use FU when none available (Count)
system.cpu.statFuBusy::SimdFloatAlu                 0      0.00%     93.64% # attempts to use FU when none available (Count)
system.cpu.statFuBusy::SimdFloatCmp                55      0.00%     93.64% # attempts to use FU when none available (Count)
system.cpu.statFuBusy::SimdFloatCvt                26      0.00%     93.64% # attempts to use FU when none available (Count)
system.cpu.statFuBusy::SimdFloatDiv                 0      0.00%     93.64% # attempts to use FU when none available (Count)
system.cpu.statFuBusy::SimdFloatMisc                0      0.00%     93.64% # attempts to use FU when none available (Count)
system.cpu.statFuBusy::SimdFloatMult             6648      0.04%     93.67% # attempts to use FU when none available (Count)
system.cpu.statFuBusy::SimdFloatMultAcc             0      0.00%     93.67% # attempts to use FU when none available (Count)
system.cpu.statFuBusy::SimdFloatMatMultAcc            0      0.00%     93.67% # attempts to use FU when none available (Count)
system.cpu.statFuBusy::SimdFloatSqrt              191      0.00%     93.67% # attempts to use FU when none available (Count)
system.cpu.statFuBusy::SimdReduceAdd                0      0.00%     93.67% # attempts to use FU when none available (Count)
system.cpu.statFuBusy::SimdReduceAlu                0      0.00%     93.67% # attempts to use FU when none available (Count)
system.cpu.statFuBusy::SimdReduceCmp                0      0.00%     93.67% # attempts to use FU when none available (Count)
system.cpu.statFuBusy::SimdFloatReduceAdd            0      0.00%     93.67% # attempts to use FU when none available (Count)
system.cpu.statFuBusy::SimdFloatReduceCmp            0      0.00%     93.67% # attempts to use FU when none available (Count)
system.cpu.statFuBusy::SimdAes                      0      0.00%     93.67% # attempts to use FU when none available (Count)
system.cpu.statFuBusy::SimdAesMix                   0      0.00%     93.67% # attempts to use FU when none available (Count)
system.cpu.statFuBusy::SimdSha1Hash                 0      0.00%     93.67% # attempts to use FU when none available (Count)
system.cpu.statFuBusy::SimdSha1Hash2                0      0.00%     93.67% # attempts to use FU when none available (Count)
system.cpu.statFuBusy::SimdSha256Hash               0      0.00%     93.67% # attempts to use FU when none available (Count)
system.cpu.statFuBusy::SimdSha256Hash2              0      0.00%     93.67% # attempts to use FU when none available (Count)
system.cpu.statFuBusy::SimdShaSigma2                0      0.00%     93.67% # attempts to use FU when none available (Count)
system.cpu.statFuBusy::SimdShaSigma3                0      0.00%     93.67% # attempts to use FU when none available (Count)
system.cpu.statFuBusy::SimdPredAlu                  0      0.00%     93.67% # attempts to use FU when none available (Count)
system.cpu.statFuBusy::Matrix                       0      0.00%     93.67% # attempts to use FU when none available (Count)
system.cpu.statFuBusy::MatrixMov                    0      0.00%     93.67% # attempts to use FU when none available (Count)
system.cpu.statFuBusy::MatrixOP                     0      0.00%     93.67% # attempts to use FU when none available (Count)
system.cpu.statFuBusy::MemRead                 331032      1.76%     95.43% # attempts to use FU when none available (Count)
system.cpu.statFuBusy::MemWrite                203207      1.08%     96.51% # attempts to use FU when none available (Count)
system.cpu.statFuBusy::FloatMemRead            635072      3.38%     99.89% # attempts to use FU when none available (Count)
system.cpu.statFuBusy::FloatMemWrite            21204      0.11%    100.00% # attempts to use FU when none available (Count)
system.cpu.statFuBusy::IprAccess                    0      0.00%    100.00% # attempts to use FU when none available (Count)
system.cpu.statFuBusy::InstPrefetch                 0      0.00%    100.00% # attempts to use FU when none available (Count)
system.cpu.statFuBusy::SimdUnitStrideLoad            0      0.00%    100.00% # attempts to use FU when none available (Count)
system.cpu.statFuBusy::SimdUnitStrideStore            0      0.00%    100.00% # attempts to use FU when none available (Count)
system.cpu.statFuBusy::SimdUnitStrideMaskLoad            0      0.00%    100.00% # attempts to use FU when none available (Count)
system.cpu.statFuBusy::SimdUnitStrideMaskStore            0      0.00%    100.00% # attempts to use FU when none available (Count)
system.cpu.statFuBusy::SimdStridedLoad              0      0.00%    100.00% # attempts to use FU when none available (Count)
system.cpu.statFuBusy::SimdStridedStore             0      0.00%    100.00% # attempts to use FU when none available (Count)
system.cpu.statFuBusy::SimdIndexedLoad              0      0.00%    100.00% # attempts to use FU when none available (Count)
system.cpu.statFuBusy::SimdIndexedStore             0      0.00%    100.00% # attempts to use FU when none available (Count)
system.cpu.statFuBusy::SimdWholeRegisterLoad            0      0.00%    100.00% # attempts to use FU when none available (Count)
system.cpu.statFuBusy::SimdWholeRegisterStore            0      0.00%    100.00% # attempts to use FU when none available (Count)
system.cpu.statFuBusy::SimdUnitStrideFaultOnlyFirstLoad            0      0.00%    100.00% # attempts to use FU when none available (Count)
system.cpu.statFuBusy::SimdUnitStrideSegmentedLoad            0      0.00%    100.00% # attempts to use FU when none available (Count)
system.cpu.statFuBusy::SimdUnitStrideSegmentedStore            0      0.00%    100.00% # attempts to use FU when none available (Count)
system.cpu.statFuBusy::SimdExt                      0      0.00%    100.00% # attempts to use FU when none available (Count)
system.cpu.statFuBusy::SimdFloatExt                 0      0.00%    100.00% # attempts to use FU when none available (Count)
system.cpu.statFuBusy::SimdConfig                   0      0.00%    100.00% # attempts to use FU when none available (Count)
system.cpu.statIssuedInstType_0::No_OpClass      2024837      0.39%      0.39% # Number of instructions issued per FU type, per thread (Count)
system.cpu.statIssuedInstType_0::IntAlu     380636769     72.92%     73.31% # Number of instructions issued per FU type, per thread (Count)
system.cpu.statIssuedInstType_0::IntMult       203974      0.04%     73.35% # Number of instructions issued per FU type, per thread (Count)
system.cpu.statIssuedInstType_0::IntDiv       2185908      0.42%     73.77% # Number of instructions issued per FU type, per thread (Count)
system.cpu.statIssuedInstType_0::FloatAdd     17877920      3.42%     77.19% # Number of instructions issued per FU type, per thread (Count)
system.cpu.statIssuedInstType_0::FloatCmp            0      0.00%     77.19% # Number of instructions issued per FU type, per thread (Count)
system.cpu.statIssuedInstType_0::FloatCvt         1678      0.00%     77.19% # Number of instructions issued per FU type, per thread (Count)
system.cpu.statIssuedInstType_0::FloatMult            0      0.00%     77.19% # Number of instructions issued per FU type, per thread (Count)
system.cpu.statIssuedInstType_0::FloatMultAcc            0      0.00%     77.19% # Number of instructions issued per FU type, per thread (Count)
system.cpu.statIssuedInstType_0::FloatDiv            0      0.00%     77.19% # Number of instructions issued per FU type, per thread (Count)
system.cpu.statIssuedInstType_0::FloatMisc            0      0.00%     77.19% # Number of instructions issued per FU type, per thread (Count)
system.cpu.statIssuedInstType_0::FloatSqrt            0      0.00%     77.19% # Number of instructions issued per FU type, per thread (Count)
system.cpu.statIssuedInstType_0::SimdAdd         7568      0.00%     77.19% # Number of instructions issued per FU type, per thread (Count)
system.cpu.statIssuedInstType_0::SimdAddAcc            0      0.00%     77.19% # Number of instructions issued per FU type, per thread (Count)
system.cpu.statIssuedInstType_0::SimdAlu      2717716      0.52%     77.71% # Number of instructions issued per FU type, per thread (Count)
system.cpu.statIssuedInstType_0::SimdCmp           28      0.00%     77.71% # Number of instructions issued per FU type, per thread (Count)
system.cpu.statIssuedInstType_0::SimdCvt       112665      0.02%     77.74% # Number of instructions issued per FU type, per thread (Count)
system.cpu.statIssuedInstType_0::SimdMisc       463832      0.09%     77.82% # Number of instructions issued per FU type, per thread (Count)
system.cpu.statIssuedInstType_0::SimdMult            0      0.00%     77.82% # Number of instructions issued per FU type, per thread (Count)
system.cpu.statIssuedInstType_0::SimdMultAcc            0      0.00%     77.82% # Number of instructions issued per FU type, per thread (Count)
system.cpu.statIssuedInstType_0::SimdMatMultAcc            0      0.00%     77.82% # Number of instructions issued per FU type, per thread (Count)
system.cpu.statIssuedInstType_0::SimdShift         5494      0.00%     77.83% # Number of instructions issued per FU type, per thread (Count)
system.cpu.statIssuedInstType_0::SimdShiftAcc            0      0.00%     77.83% # Number of instructions issued per FU type, per thread (Count)
system.cpu.statIssuedInstType_0::SimdDiv            0      0.00%     77.83% # Number of instructions issued per FU type, per thread (Count)
system.cpu.statIssuedInstType_0::SimdSqrt            0      0.00%     77.83% # Number of instructions issued per FU type, per thread (Count)
system.cpu.statIssuedInstType_0::SimdFloatAdd     12854278      2.46%     80.29% # Number of instructions issued per FU type, per thread (Count)
system.cpu.statIssuedInstType_0::SimdFloatAlu            0      0.00%     80.29% # Number of instructions issued per FU type, per thread (Count)
system.cpu.statIssuedInstType_0::SimdFloatCmp       767960      0.15%     80.44% # Number of instructions issued per FU type, per thread (Count)
system.cpu.statIssuedInstType_0::SimdFloatCvt      5598130      1.07%     81.51% # Number of instructions issued per FU type, per thread (Count)
system.cpu.statIssuedInstType_0::SimdFloatDiv        96005      0.02%     81.53% # Number of instructions issued per FU type, per thread (Count)
system.cpu.statIssuedInstType_0::SimdFloatMisc            0      0.00%     81.53% # Number of instructions issued per FU type, per thread (Count)
system.cpu.statIssuedInstType_0::SimdFloatMult      5795261      1.11%     82.64% # Number of instructions issued per FU type, per thread (Count)
system.cpu.statIssuedInstType_0::SimdFloatMultAcc            0      0.00%     82.64% # Number of instructions issued per FU type, per thread (Count)
system.cpu.statIssuedInstType_0::SimdFloatMatMultAcc            0      0.00%     82.64% # Number of instructions issued per FU type, per thread (Count)
system.cpu.statIssuedInstType_0::SimdFloatSqrt       630508      0.12%     82.76% # Number of instructions issued per FU type, per thread (Count)
system.cpu.statIssuedInstType_0::SimdReduceAdd            0      0.00%     82.76% # Number of instructions issued per FU type, per thread (Count)
system.cpu.statIssuedInstType_0::SimdReduceAlu            0      0.00%     82.76% # Number of instructions issued per FU type, per thread (Count)
system.cpu.statIssuedInstType_0::SimdReduceCmp            0      0.00%     82.76% # Number of instructions issued per FU type, per thread (Count)
system.cpu.statIssuedInstType_0::SimdFloatReduceAdd            0      0.00%     82.76% # Number of instructions issued per FU type, per thread (Count)
system.cpu.statIssuedInstType_0::SimdFloatReduceCmp            0      0.00%     82.76% # Number of instructions issued per FU type, per thread (Count)
system.cpu.statIssuedInstType_0::SimdAes            0      0.00%     82.76% # Number of instructions issued per FU type, per thread (Count)
system.cpu.statIssuedInstType_0::SimdAesMix            0      0.00%     82.76% # Number of instructions issued per FU type, per thread (Count)
system.cpu.statIssuedInstType_0::SimdSha1Hash            0      0.00%     82.76% # Number of instructions issued per FU type, per thread (Count)
system.cpu.statIssuedInstType_0::SimdSha1Hash2            0      0.00%     82.76% # Number of instructions issued per FU type, per thread (Count)
system.cpu.statIssuedInstType_0::SimdSha256Hash            0      0.00%     82.76% # Number of instructions issued per FU type, per thread (Count)
system.cpu.statIssuedInstType_0::SimdSha256Hash2            0      0.00%     82.76% # Number of instructions issued per FU type, per thread (Count)
system.cpu.statIssuedInstType_0::SimdShaSigma2            0      0.00%     82.76% # Number of instructions issued per FU type, per thread (Count)
system.cpu.statIssuedInstType_0::SimdShaSigma3            0      0.00%     82.76% # Number of instructions issued per FU type, per thread (Count)
system.cpu.statIssuedInstType_0::SimdPredAlu            0      0.00%     82.76% # Number of instructions issued per FU type, per thread (Count)
system.cpu.statIssuedInstType_0::Matrix             0      0.00%     82.76% # Number of instructions issued per FU type, per thread (Count)
system.cpu.statIssuedInstType_0::MatrixMov            0      0.00%     82.76% # Number of instructions issued per FU type, per thread (Count)
system.cpu.statIssuedInstType_0::MatrixOP            0      0.00%     82.76% # Number of instructions issued per FU type, per thread (Count)
system.cpu.statIssuedInstType_0::MemRead     51021037      9.77%     92.53% # Number of instructions issued per FU type, per thread (Count)
system.cpu.statIssuedInstType_0::MemWrite     15213395      2.91%     95.45% # Number of instructions issued per FU type, per thread (Count)
system.cpu.statIssuedInstType_0::FloatMemRead     23108140      4.43%     99.87% # Number of instructions issued per FU type, per thread (Count)
system.cpu.statIssuedInstType_0::FloatMemWrite       662780      0.13%    100.00% # Number of instructions issued per FU type, per thread (Count)
system.cpu.statIssuedInstType_0::IprAccess            0      0.00%    100.00% # Number of instructions issued per FU type, per thread (Count)
system.cpu.statIssuedInstType_0::InstPrefetch            0      0.00%    100.00% # Number of instructions issued per FU type, per thread (Count)
system.cpu.statIssuedInstType_0::SimdUnitStrideLoad            0      0.00%    100.00% # Number of instructions issued per FU type, per thread (Count)
system.cpu.statIssuedInstType_0::SimdUnitStrideStore            0      0.00%    100.00% # Number of instructions issued per FU type, per thread (Count)
system.cpu.statIssuedInstType_0::SimdUnitStrideMaskLoad            0      0.00%    100.00% # Number of instructions issued per FU type, per thread (Count)
system.cpu.statIssuedInstType_0::SimdUnitStrideMaskStore            0      0.00%    100.00% # Number of instructions issued per FU type, per thread (Count)
system.cpu.statIssuedInstType_0::SimdStridedLoad            0      0.00%    100.00% # Number of instructions issued per FU type, per thread (Count)
system.cpu.statIssuedInstType_0::SimdStridedStore            0      0.00%    100.00% # Number of instructions issued per FU type, per thread (Count)
system.cpu.statIssuedInstType_0::SimdIndexedLoad            0      0.00%    100.00% # Number of instructions issued per FU type, per thread (Count)
system.cpu.statIssuedInstType_0::SimdIndexedStore            0      0.00%    100.00% # Number of instructions issued per FU type, per thread (Count)
system.cpu.statIssuedInstType_0::SimdWholeRegisterLoad            0      0.00%    100.00% # Number of instructions issued per FU type, per thread (Count)
system.cpu.statIssuedInstType_0::SimdWholeRegisterStore            0      0.00%    100.00% # Number of instructions issued per FU type, per thread (Count)
system.cpu.statIssuedInstType_0::SimdUnitStrideFaultOnlyFirstLoad            0      0.00%    100.00% # Number of instructions issued per FU type, per thread (Count)
system.cpu.statIssuedInstType_0::SimdUnitStrideSegmentedLoad            0      0.00%    100.00% # Number of instructions issued per FU type, per thread (Count)
system.cpu.statIssuedInstType_0::SimdUnitStrideSegmentedStore            0      0.00%    100.00% # Number of instructions issued per FU type, per thread (Count)
system.cpu.statIssuedInstType_0::SimdExt            0      0.00%    100.00% # Number of instructions issued per FU type, per thread (Count)
system.cpu.statIssuedInstType_0::SimdFloatExt            0      0.00%    100.00% # Number of instructions issued per FU type, per thread (Count)
system.cpu.statIssuedInstType_0::SimdConfig            0      0.00%    100.00% # Number of instructions issued per FU type, per thread (Count)
system.cpu.statIssuedInstType_0::total      521985883                       # Number of instructions issued per FU type, per thread (Count)
system.cpu.issueRate                         2.963767                       # Inst issue rate ((Count/Cycle))
system.cpu.fuBusy                            18814078                       # FU busy when requested (Count)
system.cpu.fuBusyRate                        0.036043                       # FU busy rate (busy events/executed inst) ((Count/Count))
system.cpu.intInstQueueReads               1072503166                       # Number of integer instruction queue reads (Count)
system.cpu.intInstQueueWrites               573781117                       # Number of integer instruction queue writes (Count)
system.cpu.intInstQueueWakeupAccesses       429160587                       # Number of integer instruction queue wakeup accesses (Count)
system.cpu.fpInstQueueReads                 168879417                       # Number of floating instruction queue reads (Count)
system.cpu.fpInstQueueWrites                124465419                       # Number of floating instruction queue writes (Count)
system.cpu.fpInstQueueWakeupAccesses         81101647                       # Number of floating instruction queue wakeup accesses (Count)
system.cpu.vecInstQueueReads                        0                       # Number of vector instruction queue reads (Count)
system.cpu.vecInstQueueWrites                       0                       # Number of vector instruction queue writes (Count)
system.cpu.vecInstQueueWakeupAccesses               0                       # Number of vector instruction queue wakeup accesses (Count)
system.cpu.intAluAccesses                   453777022                       # Number of integer alu accesses (Count)
system.cpu.fpAluAccesses                     84998102                       # Number of floating point alu accesses (Count)
system.cpu.vecAluAccesses                           0                       # Number of vector alu accesses (Count)
system.cpu.numSquashedInsts                   9365452                       # Number of squashed instructions skipped in execute (Count)
system.cpu.numSwp                                   0                       # Number of swp insts executed (Count)
system.cpu.timesIdled                          111831                       # Number of times that the entire CPU went into an idle state and unscheduled itself (Count)
system.cpu.idleCycles                          822236                       # Total number of cycles that the CPU has spent unscheduled due to idling (Cycle)
system.cpu.MemDepUnit__0.insertedLoads       76146008                       # Number of loads inserted to the mem dependence unit. (Count)
system.cpu.MemDepUnit__0.insertedStores      17347070                       # Number of stores inserted to the mem dependence unit. (Count)
system.cpu.MemDepUnit__0.conflictingLoads      2232995                       # Number of conflicting loads. (Count)
system.cpu.MemDepUnit__0.conflictingStores      1210913                       # Number of conflicting stores. (Count)
system.cpu.MemDepUnit__1.insertedLoads              0                       # Number of loads inserted to the mem dependence unit. (Count)
system.cpu.MemDepUnit__1.insertedStores             0                       # Number of stores inserted to the mem dependence unit. (Count)
system.cpu.MemDepUnit__1.conflictingLoads            0                       # Number of conflicting loads. (Count)
system.cpu.MemDepUnit__1.conflictingStores            0                       # Number of conflicting stores. (Count)
system.cpu.MemDepUnit__2.insertedLoads              0                       # Number of loads inserted to the mem dependence unit. (Count)
system.cpu.MemDepUnit__2.insertedStores             0                       # Number of stores inserted to the mem dependence unit. (Count)
system.cpu.MemDepUnit__2.conflictingLoads            0                       # Number of conflicting loads. (Count)
system.cpu.MemDepUnit__2.conflictingStores            0                       # Number of conflicting stores. (Count)
system.cpu.MemDepUnit__3.insertedLoads              0                       # Number of loads inserted to the mem dependence unit. (Count)
system.cpu.MemDepUnit__3.insertedStores             0                       # Number of stores inserted to the mem dependence unit. (Count)
system.cpu.MemDepUnit__3.conflictingLoads            0                       # Number of conflicting loads. (Count)
system.cpu.MemDepUnit__3.conflictingStores            0                       # Number of conflicting stores. (Count)
system.cpu.branchPred.lookups_0::NoBranch         8728      0.01%      0.01% # Number of BP lookups (Count)
system.cpu.branchPred.lookups_0::Return       1123759      1.45%      1.46% # Number of BP lookups (Count)
system.cpu.branchPred.lookups_0::CallDirect      1491967      1.92%      3.38% # Number of BP lookups (Count)
system.cpu.branchPred.lookups_0::CallIndirect         1554      0.00%      3.39% # Number of BP lookups (Count)
system.cpu.branchPred.lookups_0::DirectCond     65067205     83.89%     87.28% # Number of BP lookups (Count)
system.cpu.branchPred.lookups_0::DirectUncond      9552278     12.32%     99.60% # Number of BP lookups (Count)
system.cpu.branchPred.lookups_0::IndirectCond            0      0.00%     99.60% # Number of BP lookups (Count)
system.cpu.branchPred.lookups_0::IndirectUncond       313056      0.40%    100.00% # Number of BP lookups (Count)
system.cpu.branchPred.lookups_0::total       77558547                       # Number of BP lookups (Count)
system.cpu.branchPred.squashes_0::NoBranch         8375      0.03%      0.03% # Number of branches that got squashed (completely removed) as an earlier branch was mispredicted. (Count)
system.cpu.branchPred.squashes_0::Return        69082      0.22%      0.25% # Number of branches that got squashed (completely removed) as an earlier branch was mispredicted. (Count)
system.cpu.branchPred.squashes_0::CallDirect       437910      1.40%      1.64% # Number of branches that got squashed (completely removed) as an earlier branch was mispredicted. (Count)
system.cpu.branchPred.squashes_0::CallIndirect          929      0.00%      1.65% # Number of branches that got squashed (completely removed) as an earlier branch was mispredicted. (Count)
system.cpu.branchPred.squashes_0::DirectCond     25938301     82.65%     84.29% # Number of branches that got squashed (completely removed) as an earlier branch was mispredicted. (Count)
system.cpu.branchPred.squashes_0::DirectUncond      4906941     15.64%     99.93% # Number of branches that got squashed (completely removed) as an earlier branch was mispredicted. (Count)
system.cpu.branchPred.squashes_0::IndirectCond            0      0.00%     99.93% # Number of branches that got squashed (completely removed) as an earlier branch was mispredicted. (Count)
system.cpu.branchPred.squashes_0::IndirectUncond        21982      0.07%    100.00% # Number of branches that got squashed (completely removed) as an earlier branch was mispredicted. (Count)
system.cpu.branchPred.squashes_0::total      31383520                       # Number of branches that got squashed (completely removed) as an earlier branch was mispredicted. (Count)
system.cpu.branchPred.corrected_0::NoBranch          620      0.02%      0.02% # Number of branches that got corrected but not yet commited. Branches get corrected by decode or after execute. Also a branch misprediction can be detected out-of-order. Therefore, a corrected branch might not end up beeing committed in case an even earlier branch was mispredicted (Count)
system.cpu.branchPred.corrected_0::Return          670      0.02%      0.03% # Number of branches that got corrected but not yet commited. Branches get corrected by decode or after execute. Also a branch misprediction can be detected out-of-order. Therefore, a corrected branch might not end up beeing committed in case an even earlier branch was mispredicted (Count)
system.cpu.branchPred.corrected_0::CallDirect         1351      0.04%      0.07% # Number of branches that got corrected but not yet commited. Branches get corrected by decode or after execute. Also a branch misprediction can be detected out-of-order. Therefore, a corrected branch might not end up beeing committed in case an even earlier branch was mispredicted (Count)
system.cpu.branchPred.corrected_0::CallIndirect          257      0.01%      0.08% # Number of branches that got corrected but not yet commited. Branches get corrected by decode or after execute. Also a branch misprediction can be detected out-of-order. Therefore, a corrected branch might not end up beeing committed in case an even earlier branch was mispredicted (Count)
system.cpu.branchPred.corrected_0::DirectCond      3730409     99.78%     99.86% # Number of branches that got corrected but not yet commited. Branches get corrected by decode or after execute. Also a branch misprediction can be detected out-of-order. Therefore, a corrected branch might not end up beeing committed in case an even earlier branch was mispredicted (Count)
system.cpu.branchPred.corrected_0::DirectUncond         3806      0.10%     99.96% # Number of branches that got corrected but not yet commited. Branches get corrected by decode or after execute. Also a branch misprediction can be detected out-of-order. Therefore, a corrected branch might not end up beeing committed in case an even earlier branch was mispredicted (Count)
system.cpu.branchPred.corrected_0::IndirectCond            0      0.00%     99.96% # Number of branches that got corrected but not yet commited. Branches get corrected by decode or after execute. Also a branch misprediction can be detected out-of-order. Therefore, a corrected branch might not end up beeing committed in case an even earlier branch was mispredicted (Count)
system.cpu.branchPred.corrected_0::IndirectUncond         1572      0.04%    100.00% # Number of branches that got corrected but not yet commited. Branches get corrected by decode or after execute. Also a branch misprediction can be detected out-of-order. Therefore, a corrected branch might not end up beeing committed in case an even earlier branch was mispredicted (Count)
system.cpu.branchPred.corrected_0::total      3738685                       # Number of branches that got corrected but not yet commited. Branches get corrected by decode or after execute. Also a branch misprediction can be detected out-of-order. Therefore, a corrected branch might not end up beeing committed in case an even earlier branch was mispredicted (Count)
system.cpu.branchPred.earlyResteers_0::NoBranch            0                       # Number of branches that got redirected after decode. (Count)
system.cpu.branchPred.earlyResteers_0::Return            0                       # Number of branches that got redirected after decode. (Count)
system.cpu.branchPred.earlyResteers_0::CallDirect            0                       # Number of branches that got redirected after decode. (Count)
system.cpu.branchPred.earlyResteers_0::CallIndirect            0                       # Number of branches that got redirected after decode. (Count)
system.cpu.branchPred.earlyResteers_0::DirectCond            0                       # Number of branches that got redirected after decode. (Count)
system.cpu.branchPred.earlyResteers_0::DirectUncond            0                       # Number of branches that got redirected after decode. (Count)
system.cpu.branchPred.earlyResteers_0::IndirectCond            0                       # Number of branches that got redirected after decode. (Count)
system.cpu.branchPred.earlyResteers_0::IndirectUncond            0                       # Number of branches that got redirected after decode. (Count)
system.cpu.branchPred.earlyResteers_0::total            0                       # Number of branches that got redirected after decode. (Count)
system.cpu.branchPred.committed_0::NoBranch          353      0.00%      0.00% # Number of branches finally committed  (Count)
system.cpu.branchPred.committed_0::Return      1054676      2.28%      2.28% # Number of branches finally committed  (Count)
system.cpu.branchPred.committed_0::CallDirect      1054056      2.28%      4.57% # Number of branches finally committed  (Count)
system.cpu.branchPred.committed_0::CallIndirect          625      0.00%      4.57% # Number of branches finally committed  (Count)
system.cpu.branchPred.committed_0::DirectCond     39128904     84.74%     89.31% # Number of branches finally committed  (Count)
system.cpu.branchPred.committed_0::DirectUncond      4645337     10.06%     99.37% # Number of branches finally committed  (Count)
system.cpu.branchPred.committed_0::IndirectCond            0      0.00%     99.37% # Number of branches finally committed  (Count)
system.cpu.branchPred.committed_0::IndirectUncond       291074      0.63%    100.00% # Number of branches finally committed  (Count)
system.cpu.branchPred.committed_0::total     46175025                       # Number of branches finally committed  (Count)
system.cpu.branchPred.mispredicted_0::NoBranch          353      0.01%      0.01% # Number of committed branches that were mispredicted. (Count)
system.cpu.branchPred.mispredicted_0::Return          658      0.02%      0.03% # Number of committed branches that were mispredicted. (Count)
system.cpu.branchPred.mispredicted_0::CallDirect          822      0.02%      0.05% # Number of committed branches that were mispredicted. (Count)
system.cpu.branchPred.mispredicted_0::CallIndirect          230      0.01%      0.06% # Number of committed branches that were mispredicted. (Count)
system.cpu.branchPred.mispredicted_0::DirectCond      3386913     99.80%     99.86% # Number of committed branches that were mispredicted. (Count)
system.cpu.branchPred.mispredicted_0::DirectUncond         3348      0.10%     99.96% # Number of committed branches that were mispredicted. (Count)
system.cpu.branchPred.mispredicted_0::IndirectCond            0      0.00%     99.96% # Number of committed branches that were mispredicted. (Count)
system.cpu.branchPred.mispredicted_0::IndirectUncond         1449      0.04%    100.00% # Number of committed branches that were mispredicted. (Count)
system.cpu.branchPred.mispredicted_0::total      3393773                       # Number of committed branches that were mispredicted. (Count)
system.cpu.branchPred.targetProvider_0::NoTarget     33303699     42.94%     42.94% # The component providing the target for taken branches (Count)
system.cpu.branchPred.targetProvider_0::BTB     42833126     55.23%     98.17% # The component providing the target for taken branches (Count)
system.cpu.branchPred.targetProvider_0::RAS      1123759      1.45%     99.62% # The component providing the target for taken branches (Count)
system.cpu.branchPred.targetProvider_0::Indirect       297963      0.38%    100.00% # The component providing the target for taken branches (Count)
system.cpu.branchPred.targetProvider_0::total     77558547                       # The component providing the target for taken branches (Count)
system.cpu.branchPred.targetWrong_0::NoBranch      1785592     48.53%     48.53% # Number of branches where the target was incorrect or not available at prediction time. (Count)
system.cpu.branchPred.targetWrong_0::Return      1892672     51.44%     99.98% # Number of branches where the target was incorrect or not available at prediction time. (Count)
system.cpu.branchPred.targetWrong_0::CallDirect          670      0.02%    100.00% # Number of branches where the target was incorrect or not available at prediction time. (Count)
system.cpu.branchPred.targetWrong_0::CallIndirect          179      0.00%    100.00% # Number of branches where the target was incorrect or not available at prediction time. (Count)
system.cpu.branchPred.targetWrong_0::DirectCond            0      0.00%    100.00% # Number of branches where the target was incorrect or not available at prediction time. (Count)
system.cpu.branchPred.targetWrong_0::DirectUncond            0      0.00%    100.00% # Number of branches where the target was incorrect or not available at prediction time. (Count)
system.cpu.branchPred.targetWrong_0::IndirectCond            0      0.00%    100.00% # Number of branches where the target was incorrect or not available at prediction time. (Count)
system.cpu.branchPred.targetWrong_0::IndirectUncond            0      0.00%    100.00% # Number of branches where the target was incorrect or not available at prediction time. (Count)
system.cpu.branchPred.targetWrong_0::total      3679113                       # Number of branches where the target was incorrect or not available at prediction time. (Count)
system.cpu.branchPred.condPredicted          65075933                       # Number of conditional branches predicted (Count)
system.cpu.branchPred.condPredictedTaken     32199536                       # Number of conditional branches predicted as taken (Count)
system.cpu.branchPred.condIncorrect           3738685                       # Number of conditional branches incorrect (Count)
system.cpu.branchPred.predTakenBTBMiss           2687                       # Number of branches predicted taken but missed in BTB (Count)
system.cpu.branchPred.NotTakenMispredicted      1794263                       # Number branches predicted 'not taken' but turned out to be taken (Count)
system.cpu.branchPred.TakenMispredicted       1944422                       # Number branches predicted taken but are actually not taken (Count)
system.cpu.branchPred.BTBLookups             77558547                       # Number of BTB lookups (Count)
system.cpu.branchPred.BTBUpdates              1791144                       # Number of BTB updates (Count)
system.cpu.branchPred.BTBHits                65592326                       # Number of BTB hits (Count)
system.cpu.branchPred.BTBHitRatio            0.845714                       # BTB Hit Ratio (Ratio)
system.cpu.branchPred.BTBMispredicted            3770                       # Number BTB mispredictions. No target found or target wrong (Count)
system.cpu.branchPred.indirectLookups          314610                       # Number of indirect predictor lookups. (Count)
system.cpu.branchPred.indirectHits             297963                       # Number of indirect target hits. (Count)
system.cpu.branchPred.indirectMisses            16647                       # Number of indirect misses. (Count)
system.cpu.branchPred.indirectMispredicted            0                       # Number of mispredicted indirect branches. (Count)
system.cpu.branchPred.btb.lookups::NoBranch         8728      0.01%      0.01% # Number of BTB lookups (Count)
system.cpu.branchPred.btb.lookups::Return      1123759      1.45%      1.46% # Number of BTB lookups (Count)
system.cpu.branchPred.btb.lookups::CallDirect      1491967      1.92%      3.38% # Number of BTB lookups (Count)
system.cpu.branchPred.btb.lookups::CallIndirect         1554      0.00%      3.39% # Number of BTB lookups (Count)
system.cpu.branchPred.btb.lookups::DirectCond     65067205     83.89%     87.28% # Number of BTB lookups (Count)
system.cpu.branchPred.btb.lookups::DirectUncond      9552278     12.32%     99.60% # Number of BTB lookups (Count)
system.cpu.branchPred.btb.lookups::IndirectCond            0      0.00%     99.60% # Number of BTB lookups (Count)
system.cpu.branchPred.btb.lookups::IndirectUncond       313056      0.40%    100.00% # Number of BTB lookups (Count)
system.cpu.branchPred.btb.lookups::total     77558547                       # Number of BTB lookups (Count)
system.cpu.branchPred.btb.misses::NoBranch          806      0.01%      0.01% # Number of BTB misses (Count)
system.cpu.branchPred.btb.misses::Return      1120955      9.37%      9.37% # Number of BTB misses (Count)
system.cpu.branchPred.btb.misses::CallDirect         2158      0.02%      9.39% # Number of BTB misses (Count)
system.cpu.branchPred.btb.misses::CallIndirect         1554      0.01%      9.41% # Number of BTB misses (Count)
system.cpu.branchPred.btb.misses::DirectCond     10526264     87.97%     97.37% # Number of BTB misses (Count)
system.cpu.branchPred.btb.misses::DirectUncond         1428      0.01%     97.38% # Number of BTB misses (Count)
system.cpu.branchPred.btb.misses::IndirectCond            0      0.00%     97.38% # Number of BTB misses (Count)
system.cpu.branchPred.btb.misses::IndirectUncond       313056      2.62%    100.00% # Number of BTB misses (Count)
system.cpu.branchPred.btb.misses::total      11966221                       # Number of BTB misses (Count)
system.cpu.branchPred.btb.updates::NoBranch            0      0.00%      0.00% # Number of BTB updates (Count)
system.cpu.branchPred.btb.updates::Return            0      0.00%      0.00% # Number of BTB updates (Count)
system.cpu.branchPred.btb.updates::CallDirect         1351      0.08%      0.08% # Number of BTB updates (Count)
system.cpu.branchPred.btb.updates::CallIndirect            0      0.00%      0.08% # Number of BTB updates (Count)
system.cpu.branchPred.btb.updates::DirectCond      1785987     99.71%     99.79% # Number of BTB updates (Count)
system.cpu.branchPred.btb.updates::DirectUncond         3806      0.21%    100.00% # Number of BTB updates (Count)
system.cpu.branchPred.btb.updates::IndirectCond            0      0.00%    100.00% # Number of BTB updates (Count)
system.cpu.branchPred.btb.updates::IndirectUncond            0      0.00%    100.00% # Number of BTB updates (Count)
system.cpu.branchPred.btb.updates::total      1791144                       # Number of BTB updates (Count)
system.cpu.branchPred.btb.mispredict::NoBranch            0      0.00%      0.00% # Number of BTB mispredictions. No target found or target wrong. (Count)
system.cpu.branchPred.btb.mispredict::Return            0      0.00%      0.00% # Number of BTB mispredictions. No target found or target wrong. (Count)
system.cpu.branchPred.btb.mispredict::CallDirect         1351      0.08%      0.08% # Number of BTB mispredictions. No target found or target wrong. (Count)
system.cpu.branchPred.btb.mispredict::CallIndirect            0      0.00%      0.08% # Number of BTB mispredictions. No target found or target wrong. (Count)
system.cpu.branchPred.btb.mispredict::DirectCond      1785987     99.71%     99.79% # Number of BTB mispredictions. No target found or target wrong. (Count)
system.cpu.branchPred.btb.mispredict::DirectUncond         3806      0.21%    100.00% # Number of BTB mispredictions. No target found or target wrong. (Count)
system.cpu.branchPred.btb.mispredict::IndirectCond            0      0.00%    100.00% # Number of BTB mispredictions. No target found or target wrong. (Count)
system.cpu.branchPred.btb.mispredict::IndirectUncond            0      0.00%    100.00% # Number of BTB mispredictions. No target found or target wrong. (Count)
system.cpu.branchPred.btb.mispredict::total      1791144                       # Number of BTB mispredictions. No target found or target wrong. (Count)
system.cpu.branchPred.btb.power_state.pwrStateResidencyTicks::UNDEFINED 2348240145862                       # Cumulative time (in ticks) in various power states (Tick)
system.cpu.branchPred.indirectBranchPred.lookups       314610                       # Number of lookups (Count)
system.cpu.branchPred.indirectBranchPred.hits       297963                       # Number of hits of a tag (Count)
system.cpu.branchPred.indirectBranchPred.misses        16647                       # Number of misses (Count)
system.cpu.branchPred.indirectBranchPred.targetRecords         1829                       # Number of targets that where recorded/installed in the cache (Count)
system.cpu.branchPred.indirectBranchPred.indirectRecords       316439                       # Number of indirect branches/calls recorded in the indirect hist (Count)
system.cpu.branchPred.indirectBranchPred.speculativeOverflows            1                       # Number of times more than the allowed capacity for speculative branches/calls where in flight and destroy the path history (Count)
system.cpu.branchPred.ras.pushes              1562603                       # Number of times a PC was pushed onto the RAS (Count)
system.cpu.branchPred.ras.pops                1562598                       # Number of times a PC was poped from the RAS (Count)
system.cpu.branchPred.ras.squashes             507921                       # Number of times the stack operation was squashed due to wrong speculation. (Count)
system.cpu.branchPred.ras.used                1054676                       # Number of times the RAS is the provider (Count)
system.cpu.branchPred.ras.correct             1054018                       # Number of times the RAS is the provider and the prediction is correct (Count)
system.cpu.branchPred.ras.incorrect               658                       # Number of times the RAS is the provider and the prediction is wrong (Count)
system.cpu.commit.commitSquashedInsts       137039924                       # The number of squashed insts skipped by commit (Count)
system.cpu.commit.commitNonSpecStalls           86748                       # The number of times commit has been forced to stall to communicate backwards (Count)
system.cpu.commit.branchMispredicts           3730169                       # The number of times a branch was mispredicted (Count)
system.cpu.commit.numCommittedDist::samples    155597712                       # Number of insts commited each cycle (Count)
system.cpu.commit.numCommittedDist::mean     2.723305                       # Number of insts commited each cycle (Count)
system.cpu.commit.numCommittedDist::stdev     3.149085                       # Number of insts commited each cycle (Count)
system.cpu.commit.numCommittedDist::underflows            0      0.00%      0.00% # Number of insts commited each cycle (Count)
system.cpu.commit.numCommittedDist::0        64682171     41.57%     41.57% # Number of insts commited each cycle (Count)
system.cpu.commit.numCommittedDist::1        16607091     10.67%     52.24% # Number of insts commited each cycle (Count)
system.cpu.commit.numCommittedDist::2        10307523      6.62%     58.87% # Number of insts commited each cycle (Count)
system.cpu.commit.numCommittedDist::3        16695343     10.73%     69.60% # Number of insts commited each cycle (Count)
system.cpu.commit.numCommittedDist::4         5277832      3.39%     72.99% # Number of insts commited each cycle (Count)
system.cpu.commit.numCommittedDist::5         3474536      2.23%     75.22% # Number of insts commited each cycle (Count)
system.cpu.commit.numCommittedDist::6         3676383      2.36%     77.59% # Number of insts commited each cycle (Count)
system.cpu.commit.numCommittedDist::7         3125050      2.01%     79.59% # Number of insts commited each cycle (Count)
system.cpu.commit.numCommittedDist::8        31751783     20.41%    100.00% # Number of insts commited each cycle (Count)
system.cpu.commit.numCommittedDist::overflows            0      0.00%    100.00% # Number of insts commited each cycle (Count)
system.cpu.commit.numCommittedDist::min_value            0                       # Number of insts commited each cycle (Count)
system.cpu.commit.numCommittedDist::max_value            8                       # Number of insts commited each cycle (Count)
system.cpu.commit.numCommittedDist::total    155597712                       # Number of insts commited each cycle (Count)
system.cpu.commit.amos                              0                       # Number of atomic instructions committed (Count)
system.cpu.commit.membars                       57198                       # Number of memory barriers committed (Count)
system.cpu.commit.functionCalls               1054681                       # Number of function calls committed. (Count)
system.cpu.commit.committedInstType_0::No_OpClass      1680967      0.40%      0.40% # Class of committed instruction (Count)
system.cpu.commit.committedInstType_0::IntAlu    304579346     71.88%     72.28% # Class of committed instruction (Count)
system.cpu.commit.committedInstType_0::IntMult       195147      0.05%     72.32% # Class of committed instruction (Count)
system.cpu.commit.committedInstType_0::IntDiv      1984256      0.47%     72.79% # Class of committed instruction (Count)
system.cpu.commit.committedInstType_0::FloatAdd     13200063      3.12%     75.90% # Class of committed instruction (Count)
system.cpu.commit.committedInstType_0::FloatCmp            0      0.00%     75.90% # Class of committed instruction (Count)
system.cpu.commit.committedInstType_0::FloatCvt         1632      0.00%     75.91% # Class of committed instruction (Count)
system.cpu.commit.committedInstType_0::FloatMult            0      0.00%     75.91% # Class of committed instruction (Count)
system.cpu.commit.committedInstType_0::FloatMultAcc            0      0.00%     75.91% # Class of committed instruction (Count)
system.cpu.commit.committedInstType_0::FloatDiv            0      0.00%     75.91% # Class of committed instruction (Count)
system.cpu.commit.committedInstType_0::FloatMisc            0      0.00%     75.91% # Class of committed instruction (Count)
system.cpu.commit.committedInstType_0::FloatSqrt            0      0.00%     75.91% # Class of committed instruction (Count)
system.cpu.commit.committedInstType_0::SimdAdd         6810      0.00%     75.91% # Class of committed instruction (Count)
system.cpu.commit.committedInstType_0::SimdAddAcc            0      0.00%     75.91% # Class of committed instruction (Count)
system.cpu.commit.committedInstType_0::SimdAlu      2431320      0.57%     76.48% # Class of committed instruction (Count)
system.cpu.commit.committedInstType_0::SimdCmp           18      0.00%     76.48% # Class of committed instruction (Count)
system.cpu.commit.committedInstType_0::SimdCvt       110250      0.03%     76.51% # Class of committed instruction (Count)
system.cpu.commit.committedInstType_0::SimdMisc       462758      0.11%     76.62% # Class of committed instruction (Count)
system.cpu.commit.committedInstType_0::SimdMult            0      0.00%     76.62% # Class of committed instruction (Count)
system.cpu.commit.committedInstType_0::SimdMultAcc            0      0.00%     76.62% # Class of committed instruction (Count)
system.cpu.commit.committedInstType_0::SimdMatMultAcc            0      0.00%     76.62% # Class of committed instruction (Count)
system.cpu.commit.committedInstType_0::SimdShift         2207      0.00%     76.62% # Class of committed instruction (Count)
system.cpu.commit.committedInstType_0::SimdShiftAcc            0      0.00%     76.62% # Class of committed instruction (Count)
system.cpu.commit.committedInstType_0::SimdDiv            0      0.00%     76.62% # Class of committed instruction (Count)
system.cpu.commit.committedInstType_0::SimdSqrt            0      0.00%     76.62% # Class of committed instruction (Count)
system.cpu.commit.committedInstType_0::SimdFloatAdd     11503368      2.71%     79.33% # Class of committed instruction (Count)
system.cpu.commit.committedInstType_0::SimdFloatAlu            0      0.00%     79.33% # Class of committed instruction (Count)
system.cpu.commit.committedInstType_0::SimdFloatCmp       767958      0.18%     79.51% # Class of committed instruction (Count)
system.cpu.commit.committedInstType_0::SimdFloatCvt      4939180      1.17%     80.68% # Class of committed instruction (Count)
system.cpu.commit.committedInstType_0::SimdFloatDiv        96004      0.02%     80.70% # Class of committed instruction (Count)
system.cpu.commit.committedInstType_0::SimdFloatMisc            0      0.00%     80.70% # Class of committed instruction (Count)
system.cpu.commit.committedInstType_0::SimdFloatMult      5515326      1.30%     82.00% # Class of committed instruction (Count)
system.cpu.commit.committedInstType_0::SimdFloatMultAcc            0      0.00%     82.00% # Class of committed instruction (Count)
system.cpu.commit.committedInstType_0::SimdFloatMatMultAcc            0      0.00%     82.00% # Class of committed instruction (Count)
system.cpu.commit.committedInstType_0::SimdFloatSqrt       527488      0.12%     82.13% # Class of committed instruction (Count)
system.cpu.commit.committedInstType_0::SimdReduceAdd            0      0.00%     82.13% # Class of committed instruction (Count)
system.cpu.commit.committedInstType_0::SimdReduceAlu            0      0.00%     82.13% # Class of committed instruction (Count)
system.cpu.commit.committedInstType_0::SimdReduceCmp            0      0.00%     82.13% # Class of committed instruction (Count)
system.cpu.commit.committedInstType_0::SimdFloatReduceAdd            0      0.00%     82.13% # Class of committed instruction (Count)
system.cpu.commit.committedInstType_0::SimdFloatReduceCmp            0      0.00%     82.13% # Class of committed instruction (Count)
system.cpu.commit.committedInstType_0::SimdAes            0      0.00%     82.13% # Class of committed instruction (Count)
system.cpu.commit.committedInstType_0::SimdAesMix            0      0.00%     82.13% # Class of committed instruction (Count)
system.cpu.commit.committedInstType_0::SimdSha1Hash            0      0.00%     82.13% # Class of committed instruction (Count)
system.cpu.commit.committedInstType_0::SimdSha1Hash2            0      0.00%     82.13% # Class of committed instruction (Count)
system.cpu.commit.committedInstType_0::SimdSha256Hash            0      0.00%     82.13% # Class of committed instruction (Count)
system.cpu.commit.committedInstType_0::SimdSha256Hash2            0      0.00%     82.13% # Class of committed instruction (Count)
system.cpu.commit.committedInstType_0::SimdShaSigma2            0      0.00%     82.13% # Class of committed instruction (Count)
system.cpu.commit.committedInstType_0::SimdShaSigma3            0      0.00%     82.13% # Class of committed instruction (Count)
system.cpu.commit.committedInstType_0::SimdPredAlu            0      0.00%     82.13% # Class of committed instruction (Count)
system.cpu.commit.committedInstType_0::Matrix            0      0.00%     82.13% # Class of committed instruction (Count)
system.cpu.commit.committedInstType_0::MatrixMov            0      0.00%     82.13% # Class of committed instruction (Count)
system.cpu.commit.committedInstType_0::MatrixOP            0      0.00%     82.13% # Class of committed instruction (Count)
system.cpu.commit.committedInstType_0::MemRead     43746616     10.32%     92.45% # Class of committed instruction (Count)
system.cpu.commit.committedInstType_0::MemWrite     13224011      3.12%     95.57% # Class of committed instruction (Count)
system.cpu.commit.committedInstType_0::FloatMemRead     18118785      4.28%     99.85% # Class of committed instruction (Count)
system.cpu.commit.committedInstType_0::FloatMemWrite       646576      0.15%    100.00% # Class of committed instruction (Count)
system.cpu.commit.committedInstType_0::IprAccess            0      0.00%    100.00% # Class of committed instruction (Count)
system.cpu.commit.committedInstType_0::InstPrefetch            0      0.00%    100.00% # Class of committed instruction (Count)
system.cpu.commit.committedInstType_0::SimdUnitStrideLoad            0      0.00%    100.00% # Class of committed instruction (Count)
system.cpu.commit.committedInstType_0::SimdUnitStrideStore            0      0.00%    100.00% # Class of committed instruction (Count)
system.cpu.commit.committedInstType_0::SimdUnitStrideMaskLoad            0      0.00%    100.00% # Class of committed instruction (Count)
system.cpu.commit.committedInstType_0::SimdUnitStrideMaskStore            0      0.00%    100.00% # Class of committed instruction (Count)
system.cpu.commit.committedInstType_0::SimdStridedLoad            0      0.00%    100.00% # Class of committed instruction (Count)
system.cpu.commit.committedInstType_0::SimdStridedStore            0      0.00%    100.00% # Class of committed instruction (Count)
system.cpu.commit.committedInstType_0::SimdIndexedLoad            0      0.00%    100.00% # Class of committed instruction (Count)
system.cpu.commit.committedInstType_0::SimdIndexedStore            0      0.00%    100.00% # Class of committed instruction (Count)
system.cpu.commit.committedInstType_0::SimdWholeRegisterLoad            0      0.00%    100.00% # Class of committed instruction (Count)
system.cpu.commit.committedInstType_0::SimdWholeRegisterStore            0      0.00%    100.00% # Class of committed instruction (Count)
system.cpu.commit.committedInstType_0::SimdUnitStrideFaultOnlyFirstLoad            0      0.00%    100.00% # Class of committed instruction (Count)
system.cpu.commit.committedInstType_0::SimdUnitStrideSegmentedLoad            0      0.00%    100.00% # Class of committed instruction (Count)
system.cpu.commit.committedInstType_0::SimdUnitStrideSegmentedStore            0      0.00%    100.00% # Class of committed instruction (Count)
system.cpu.commit.committedInstType_0::SimdExt            0      0.00%    100.00% # Class of committed instruction (Count)
system.cpu.commit.committedInstType_0::SimdFloatExt            0      0.00%    100.00% # Class of committed instruction (Count)
system.cpu.commit.committedInstType_0::SimdConfig            0      0.00%    100.00% # Class of committed instruction (Count)
system.cpu.commit.committedInstType_0::total    423740086                       # Class of committed instruction (Count)
system.cpu.commit.commitEligibleSamples      31751783                       # number cycles where commit BW limit reached (Cycle)
system.cpu.commitStats0.numInsts            234417668                       # Number of instructions committed (thread level) (Count)
system.cpu.commitStats0.numOps              423740086                       # Number of ops (including micro ops) committed (thread level) (Count)
system.cpu.commitStats0.numInstsNotNOP      234417668                       # Number of instructions committed excluding NOPs or prefetches (Count)
system.cpu.commitStats0.numOpsNotNOP        423740086                       # Number of Ops (including micro ops) Simulated (Count)
system.cpu.commitStats0.cpi                  0.751319                       # CPI: cycles per instruction (thread level) ((Cycle/Count))
system.cpu.commitStats0.ipc                  1.330993                       # IPC: instructions per cycle (thread level) ((Count/Cycle))
system.cpu.commitStats0.numMemRefs           75735988                       # Number of memory references committed (Count)
system.cpu.commitStats0.numFpInsts           66563443                       # Number of float instructions (Count)
system.cpu.commitStats0.numIntInsts         374028376                       # Number of integer instructions (Count)
system.cpu.commitStats0.numLoadInsts         61865401                       # Number of load instructions (Count)
system.cpu.commitStats0.numStoreInsts        13870587                       # Number of store instructions (Count)
system.cpu.commitStats0.numVecInsts                 0                       # Number of vector instructions (Count)
system.cpu.commitStats0.committedInstType::No_OpClass      1680967      0.40%      0.40% # Class of committed instruction. (Count)
system.cpu.commitStats0.committedInstType::IntAlu    304579346     71.88%     72.28% # Class of committed instruction. (Count)
system.cpu.commitStats0.committedInstType::IntMult       195147      0.05%     72.32% # Class of committed instruction. (Count)
system.cpu.commitStats0.committedInstType::IntDiv      1984256      0.47%     72.79% # Class of committed instruction. (Count)
system.cpu.commitStats0.committedInstType::FloatAdd     13200063      3.12%     75.90% # Class of committed instruction. (Count)
system.cpu.commitStats0.committedInstType::FloatCmp            0      0.00%     75.90% # Class of committed instruction. (Count)
system.cpu.commitStats0.committedInstType::FloatCvt         1632      0.00%     75.91% # Class of committed instruction. (Count)
system.cpu.commitStats0.committedInstType::FloatMult            0      0.00%     75.91% # Class of committed instruction. (Count)
system.cpu.commitStats0.committedInstType::FloatMultAcc            0      0.00%     75.91% # Class of committed instruction. (Count)
system.cpu.commitStats0.committedInstType::FloatDiv            0      0.00%     75.91% # Class of committed instruction. (Count)
system.cpu.commitStats0.committedInstType::FloatMisc            0      0.00%     75.91% # Class of committed instruction. (Count)
system.cpu.commitStats0.committedInstType::FloatSqrt            0      0.00%     75.91% # Class of committed instruction. (Count)
system.cpu.commitStats0.committedInstType::SimdAdd         6810      0.00%     75.91% # Class of committed instruction. (Count)
system.cpu.commitStats0.committedInstType::SimdAddAcc            0      0.00%     75.91% # Class of committed instruction. (Count)
system.cpu.commitStats0.committedInstType::SimdAlu      2431320      0.57%     76.48% # Class of committed instruction. (Count)
system.cpu.commitStats0.committedInstType::SimdCmp           18      0.00%     76.48% # Class of committed instruction. (Count)
system.cpu.commitStats0.committedInstType::SimdCvt       110250      0.03%     76.51% # Class of committed instruction. (Count)
system.cpu.commitStats0.committedInstType::SimdMisc       462758      0.11%     76.62% # Class of committed instruction. (Count)
system.cpu.commitStats0.committedInstType::SimdMult            0      0.00%     76.62% # Class of committed instruction. (Count)
system.cpu.commitStats0.committedInstType::SimdMultAcc            0      0.00%     76.62% # Class of committed instruction. (Count)
system.cpu.commitStats0.committedInstType::SimdMatMultAcc            0      0.00%     76.62% # Class of committed instruction. (Count)
system.cpu.commitStats0.committedInstType::SimdShift         2207      0.00%     76.62% # Class of committed instruction. (Count)
system.cpu.commitStats0.committedInstType::SimdShiftAcc            0      0.00%     76.62% # Class of committed instruction. (Count)
system.cpu.commitStats0.committedInstType::SimdDiv            0      0.00%     76.62% # Class of committed instruction. (Count)
system.cpu.commitStats0.committedInstType::SimdSqrt            0      0.00%     76.62% # Class of committed instruction. (Count)
system.cpu.commitStats0.committedInstType::SimdFloatAdd     11503368      2.71%     79.33% # Class of committed instruction. (Count)
system.cpu.commitStats0.committedInstType::SimdFloatAlu            0      0.00%     79.33% # Class of committed instruction. (Count)
system.cpu.commitStats0.committedInstType::SimdFloatCmp       767958      0.18%     79.51% # Class of committed instruction. (Count)
system.cpu.commitStats0.committedInstType::SimdFloatCvt      4939180      1.17%     80.68% # Class of committed instruction. (Count)
system.cpu.commitStats0.committedInstType::SimdFloatDiv        96004      0.02%     80.70% # Class of committed instruction. (Count)
system.cpu.commitStats0.committedInstType::SimdFloatMisc            0      0.00%     80.70% # Class of committed instruction. (Count)
system.cpu.commitStats0.committedInstType::SimdFloatMult      5515326      1.30%     82.00% # Class of committed instruction. (Count)
system.cpu.commitStats0.committedInstType::SimdFloatMultAcc            0      0.00%     82.00% # Class of committed instruction. (Count)
system.cpu.commitStats0.committedInstType::SimdFloatMatMultAcc            0      0.00%     82.00% # Class of committed instruction. (Count)
system.cpu.commitStats0.committedInstType::SimdFloatSqrt       527488      0.12%     82.13% # Class of committed instruction. (Count)
system.cpu.commitStats0.committedInstType::SimdReduceAdd            0      0.00%     82.13% # Class of committed instruction. (Count)
system.cpu.commitStats0.committedInstType::SimdReduceAlu            0      0.00%     82.13% # Class of committed instruction. (Count)
system.cpu.commitStats0.committedInstType::SimdReduceCmp            0      0.00%     82.13% # Class of committed instruction. (Count)
system.cpu.commitStats0.committedInstType::SimdFloatReduceAdd            0      0.00%     82.13% # Class of committed instruction. (Count)
system.cpu.commitStats0.committedInstType::SimdFloatReduceCmp            0      0.00%     82.13% # Class of committed instruction. (Count)
system.cpu.commitStats0.committedInstType::SimdAes            0      0.00%     82.13% # Class of committed instruction. (Count)
system.cpu.commitStats0.committedInstType::SimdAesMix            0      0.00%     82.13% # Class of committed instruction. (Count)
system.cpu.commitStats0.committedInstType::SimdSha1Hash            0      0.00%     82.13% # Class of committed instruction. (Count)
system.cpu.commitStats0.committedInstType::SimdSha1Hash2            0      0.00%     82.13% # Class of committed instruction. (Count)
system.cpu.commitStats0.committedInstType::SimdSha256Hash            0      0.00%     82.13% # Class of committed instruction. (Count)
system.cpu.commitStats0.committedInstType::SimdSha256Hash2            0      0.00%     82.13% # Class of committed instruction. (Count)
system.cpu.commitStats0.committedInstType::SimdShaSigma2            0      0.00%     82.13% # Class of committed instruction. (Count)
system.cpu.commitStats0.committedInstType::SimdShaSigma3            0      0.00%     82.13% # Class of committed instruction. (Count)
system.cpu.commitStats0.committedInstType::SimdPredAlu            0      0.00%     82.13% # Class of committed instruction. (Count)
system.cpu.commitStats0.committedInstType::Matrix            0      0.00%     82.13% # Class of committed instruction. (Count)
system.cpu.commitStats0.committedInstType::MatrixMov            0      0.00%     82.13% # Class of committed instruction. (Count)
system.cpu.commitStats0.committedInstType::MatrixOP            0      0.00%     82.13% # Class of committed instruction. (Count)
system.cpu.commitStats0.committedInstType::MemRead     43746616     10.32%     92.45% # Class of committed instruction. (Count)
system.cpu.commitStats0.committedInstType::MemWrite     13224011      3.12%     95.57% # Class of committed instruction. (Count)
system.cpu.commitStats0.committedInstType::FloatMemRead     18118785      4.28%     99.85% # Class of committed instruction. (Count)
system.cpu.commitStats0.committedInstType::FloatMemWrite       646576      0.15%    100.00% # Class of committed instruction. (Count)
system.cpu.commitStats0.committedInstType::IprAccess            0      0.00%    100.00% # Class of committed instruction. (Count)
system.cpu.commitStats0.committedInstType::InstPrefetch            0      0.00%    100.00% # Class of committed instruction. (Count)
system.cpu.commitStats0.committedInstType::SimdUnitStrideLoad            0      0.00%    100.00% # Class of committed instruction. (Count)
system.cpu.commitStats0.committedInstType::SimdUnitStrideStore            0      0.00%    100.00% # Class of committed instruction. (Count)
system.cpu.commitStats0.committedInstType::SimdUnitStrideMaskLoad            0      0.00%    100.00% # Class of committed instruction. (Count)
system.cpu.commitStats0.committedInstType::SimdUnitStrideMaskStore            0      0.00%    100.00% # Class of committed instruction. (Count)
system.cpu.commitStats0.committedInstType::SimdStridedLoad            0      0.00%    100.00% # Class of committed instruction. (Count)
system.cpu.commitStats0.committedInstType::SimdStridedStore            0      0.00%    100.00% # Class of committed instruction. (Count)
system.cpu.commitStats0.committedInstType::SimdIndexedLoad            0      0.00%    100.00% # Class of committed instruction. (Count)
system.cpu.commitStats0.committedInstType::SimdIndexedStore            0      0.00%    100.00% # Class of committed instruction. (Count)
system.cpu.commitStats0.committedInstType::SimdWholeRegisterLoad            0      0.00%    100.00% # Class of committed instruction. (Count)
system.cpu.commitStats0.committedInstType::SimdWholeRegisterStore            0      0.00%    100.00% # Class of committed instruction. (Count)
system.cpu.commitStats0.committedInstType::SimdUnitStrideFaultOnlyFirstLoad            0      0.00%    100.00% # Class of committed instruction. (Count)
system.cpu.commitStats0.committedInstType::SimdUnitStrideSegmentedLoad            0      0.00%    100.00% # Class of committed instruction. (Count)
system.cpu.commitStats0.committedInstType::SimdUnitStrideSegmentedStore            0      0.00%    100.00% # Class of committed instruction. (Count)
system.cpu.commitStats0.committedInstType::SimdExt            0      0.00%    100.00% # Class of committed instruction. (Count)
system.cpu.commitStats0.committedInstType::SimdFloatExt            0      0.00%    100.00% # Class of committed instruction. (Count)
system.cpu.commitStats0.committedInstType::SimdConfig            0      0.00%    100.00% # Class of committed instruction. (Count)
system.cpu.commitStats0.committedInstType::total    423740086                       # Class of committed instruction. (Count)
system.cpu.commitStats0.committedControl::IsControl     46175025                       # Class of control type instructions committed (Count)
system.cpu.commitStats0.committedControl::IsDirectControl     44828297                       # Class of control type instructions committed (Count)
system.cpu.commitStats0.committedControl::IsIndirectControl      1346375                       # Class of control type instructions committed (Count)
system.cpu.commitStats0.committedControl::IsCondControl     39128904                       # Class of control type instructions committed (Count)
system.cpu.commitStats0.committedControl::IsUncondControl      7045768                       # Class of control type instructions committed (Count)
system.cpu.commitStats0.committedControl::IsCall      1054681                       # Class of control type instructions committed (Count)
system.cpu.commitStats0.committedControl::IsReturn      1054676                       # Class of control type instructions committed (Count)
system.cpu.decode.idleCycles                 47015544                       # Number of cycles decode is idle (Cycle)
system.cpu.decode.blockedCycles              32972628                       # Number of cycles decode is blocked (Cycle)
system.cpu.decode.runCycles                  80305645                       # Number of cycles decode is running (Cycle)
system.cpu.decode.unblockCycles              11252279                       # Number of cycles decode is unblocking (Cycle)
system.cpu.decode.squashCycles                3754083                       # Number of cycles decode is squashing (Cycle)
system.cpu.decode.branchResolved             39697279                       # Number of times decode resolved a branch (Count)
system.cpu.decode.branchMispred                  8860                       # Number of times decode detected a branch misprediction (Count)
system.cpu.decode.decodedInsts              624713011                       # Number of instructions handled by decode (Count)
system.cpu.decode.squashedInsts                 19951                       # Number of squashed instructions handled by decode (Count)
system.cpu.executeStats0.numInsts           512620431                       # Number of executed instructions (Count)
system.cpu.executeStats0.numNop                     0                       # Number of nop insts executed (Count)
system.cpu.executeStats0.numBranches         54282849                       # Number of branches executed (Count)
system.cpu.executeStats0.numLoadInsts        72808163                       # Number of load instructions executed (Count)
system.cpu.executeStats0.numStoreInsts       15633678                       # Number of stores executed (Count)
system.cpu.executeStats0.instRate            2.910592                       # Inst execution rate ((Count/Cycle))
system.cpu.executeStats0.numCCRegReads      283832454                       # Number of times the CC registers were read (Count)
system.cpu.executeStats0.numCCRegWrites     174818915                       # Number of times the CC registers were written (Count)
system.cpu.executeStats0.numFpRegReads      103341573                       # Number of times the floating registers were read (Count)
system.cpu.executeStats0.numFpRegWrites      75407242                       # Number of times the floating registers were written (Count)
system.cpu.executeStats0.numIntRegReads     517264536                       # Number of times the integer registers were read (Count)
system.cpu.executeStats0.numIntRegWrites    320994421                       # Number of times the integer registers were written (Count)
system.cpu.executeStats0.numMemRefs          88441841                       # Number of memory refs (Count)
system.cpu.executeStats0.numMiscRegReads    203739493                       # Number of times the Misc registers were read (Count)
system.cpu.executeStats0.numMiscRegWrites          918                       # Number of times the Misc registers were written (Count)
system.cpu.executeStats0.numVecAluAccesses            0                       # Number of vector alu accesses (Count)
system.cpu.executeStats0.numDiscardedOps            0                       # Number of ops (including micro ops) which were discarded before commit (Count)
system.cpu.fetch.predictedBranches           44254848                       # Number of branches that fetch has predicted taken (Count)
system.cpu.fetch.cycles                     133011827                       # Number of cycles fetch has run and was not squashing or blocked (Cycle)
system.cpu.fetch.squashCycles                 7525732                       # Number of cycles fetch has spent squashing (Cycle)
system.cpu.fetch.miscStallCycles                  348                       # Number of cycles fetch has spent waiting on interrupts, or bad addresses, or out of MSHRs (Cycle)
system.cpu.fetch.pendingTrapStallCycles          3271                       # Number of stall cycles due to pending traps (Cycle)
system.cpu.fetch.cacheLines                  57680271                       # Number of cache lines fetched (Count)
[...]
system.mem_ctrl.dram.bwRead::total          330413268                       # Total read bandwidth from this memory ((Byte/Second))
system.mem_ctrl.dram.bwInstRead::cpu.inst    173957849                       # Instruction read bandwidth from this memory ((Byte/Second))
system.mem_ctrl.dram.bwInstRead::total      173957849                       # Instruction read bandwidth from this memory ((Byte/Second))
system.mem_ctrl.dram.bwWrite::writebacks     41842728                       # Write bandwidth from this memory ((Byte/Second))
system.mem_ctrl.dram.bwWrite::total          41842728                       # Write bandwidth from this memory ((Byte/Second))
system.mem_ctrl.dram.bwTotal::writebacks     41842728                       # Total bandwidth to/from this memory ((Byte/Second))
system.mem_ctrl.dram.bwTotal::cpu.inst      173957849                       # Total bandwidth to/from this memory ((Byte/Second))
system.mem_ctrl.dram.bwTotal::cpu.data      156455419                       # Total bandwidth to/from this memory ((Byte/Second))
system.mem_ctrl.dram.bwTotal::total         372255997                       # Total bandwidth to/from this memory ((Byte/Second))
system.mem_ctrl.dram.readBursts                  4904                       # Number of DRAM read bursts (Count)
system.mem_ctrl.dram.writeBursts                  482                       # Number of DRAM write bursts (Count)
system.mem_ctrl.dram.perBankRdBursts::0           365                       # Per bank write bursts (Count)
system.mem_ctrl.dram.perBankRdBursts::1           200                       # Per bank write bursts (Count)
system.mem_ctrl.dram.perBankRdBursts::2           164                       # Per bank write bursts (Count)
system.mem_ctrl.dram.perBankRdBursts::3           459                       # Per bank write bursts (Count)
system.mem_ctrl.dram.perBankRdBursts::4           429                       # Per bank write bursts (Count)
system.mem_ctrl.dram.perBankRdBursts::5           149                       # Per bank write bursts (Count)
system.mem_ctrl.dram.perBankRdBursts::6           303                       # Per bank write bursts (Count)
system.mem_ctrl.dram.perBankRdBursts::7           134                       # Per bank write bursts (Count)
system.mem_ctrl.dram.perBankRdBursts::8           190                       # Per bank write bursts (Count)
system.mem_ctrl.dram.perBankRdBursts::9           266                       # Per bank write bursts (Count)
system.mem_ctrl.dram.perBankRdBursts::10          201                       # Per bank write bursts (Count)
system.mem_ctrl.dram.perBankRdBursts::11          568                       # Per bank write bursts (Count)
system.mem_ctrl.dram.perBankRdBursts::12          453                       # Per bank write bursts (Count)
system.mem_ctrl.dram.perBankRdBursts::13          179                       # Per bank write bursts (Count)
system.mem_ctrl.dram.perBankRdBursts::14          410                       # Per bank write bursts (Count)
system.mem_ctrl.dram.perBankRdBursts::15          434                       # Per bank write bursts (Count)
system.mem_ctrl.dram.perBankWrBursts::0            45                       # Per bank write bursts (Count)
system.mem_ctrl.dram.perBankWrBursts::1            42                       # Per bank write bursts (Count)
system.mem_ctrl.dram.perBankWrBursts::2            23                       # Per bank write bursts (Count)
system.mem_ctrl.dram.perBankWrBursts::3           203                       # Per bank write bursts (Count)
system.mem_ctrl.dram.perBankWrBursts::4             5                       # Per bank write bursts (Count)
system.mem_ctrl.dram.perBankWrBursts::5            30                       # Per bank write bursts (Count)
system.mem_ctrl.dram.perBankWrBursts::6             2                       # Per bank write bursts (Count)
system.mem_ctrl.dram.perBankWrBursts::7             1                       # Per bank write bursts (Count)
system.mem_ctrl.dram.perBankWrBursts::8             7                       # Per bank write bursts (Count)
system.mem_ctrl.dram.perBankWrBursts::9             0                       # Per bank write bursts (Count)
system.mem_ctrl.dram.perBankWrBursts::10           31                       # Per bank write bursts (Count)
system.mem_ctrl.dram.perBankWrBursts::11           11                       # Per bank write bursts (Count)
system.mem_ctrl.dram.perBankWrBursts::12           32                       # Per bank write bursts (Count)
system.mem_ctrl.dram.perBankWrBursts::13           18                       # Per bank write bursts (Count)
system.mem_ctrl.dram.perBankWrBursts::14            0                       # Per bank write bursts (Count)
system.mem_ctrl.dram.perBankWrBursts::15           32                       # Per bank write bursts (Count)
system.mem_ctrl.dram.totQLat                 66316655                       # Total ticks spent queuing (Tick)
system.mem_ctrl.dram.totBusLat               24520000                       # Total ticks spent in databus transfers (Tick)
system.mem_ctrl.dram.totMemAccLat           158266655                       # Total ticks spent from burst creation until serviced by the DRAM (Tick)
system.mem_ctrl.dram.avgQLat                 13522.97                       # Average queueing delay per DRAM burst ((Tick/Count))
system.mem_ctrl.dram.avgBusLat                5000.00                       # Average bus latency per DRAM burst ((Tick/Count))
system.mem_ctrl.dram.avgMemAccLat            32272.97                       # Average memory access latency per DRAM burst ((Tick/Count))
system.mem_ctrl.dram.readRowHits                 2735                       # Number of row buffer hits during reads (Count)
system.mem_ctrl.dram.writeRowHits                 381                       # Number of row buffer hits during writes (Count)
system.mem_ctrl.dram.readRowHitRate             55.77                       # Row buffer hit rate for reads (Ratio)
system.mem_ctrl.dram.writeRowHitRate            79.05                       # Row buffer hit rate for writes (Ratio)
system.mem_ctrl.dram.bytesPerActivate::samples         2274                       # Bytes accessed per row activation (Byte)
system.mem_ctrl.dram.bytesPerActivate::mean   151.838171                       # Bytes accessed per row activation (Byte)
system.mem_ctrl.dram.bytesPerActivate::gmean   114.796493                       # Bytes accessed per row activation (Byte)
system.mem_ctrl.dram.bytesPerActivate::stdev   147.721484                       # Bytes accessed per row activation (Byte)
system.mem_ctrl.dram.bytesPerActivate::0-127         1105     48.59%     48.59% # Bytes accessed per row activation (Byte)
system.mem_ctrl.dram.bytesPerActivate::128-255          787     34.61%     83.20% # Bytes accessed per row activation (Byte)
system.mem_ctrl.dram.bytesPerActivate::256-383          204      8.97%     92.17% # Bytes accessed per row activation (Byte)
system.mem_ctrl.dram.bytesPerActivate::384-511           84      3.69%     95.87% # Bytes accessed per row activation (Byte)
system.mem_ctrl.dram.bytesPerActivate::512-639           40      1.76%     97.63% # Bytes accessed per row activation (Byte)
system.mem_ctrl.dram.bytesPerActivate::640-767           20      0.88%     98.50% # Bytes accessed per row activation (Byte)
system.mem_ctrl.dram.bytesPerActivate::768-895           16      0.70%     99.21% # Bytes accessed per row activation (Byte)
system.mem_ctrl.dram.bytesPerActivate::896-1023            4      0.18%     99.38% # Bytes accessed per row activation (Byte)
system.mem_ctrl.dram.bytesPerActivate::1024-1151           14      0.62%    100.00% # Bytes accessed per row activation (Byte)
system.mem_ctrl.dram.bytesPerActivate::total         2274                       # Bytes accessed per row activation (Byte)
system.mem_ctrl.dram.dramBytesRead             313856                       # Total bytes read (Byte)
system.mem_ctrl.dram.dramBytesWritten           30848                       # Total bytes written (Byte)
system.mem_ctrl.dram.avgRdBW               307.641289                       # Average DRAM read bandwidth in MiBytes/s ((Byte/Second))
system.mem_ctrl.dram.avgWrBW                30.237174                       # Average DRAM write bandwidth in MiBytes/s ((Byte/Second))
system.mem_ctrl.dram.peakBW                  12800.00                       # Theoretical peak bandwidth in MiByte/s ((Byte/Second))
system.mem_ctrl.dram.busUtil                     2.64                       # Data bus utilization in percentage (Ratio)
system.mem_ctrl.dram.busUtilRead                 2.40                       # Data bus utilization in percentage for reads (Ratio)
system.mem_ctrl.dram.busUtilWrite                0.24                       # Data bus utilization in percentage for writes (Ratio)
system.mem_ctrl.dram.pageHitRate                57.85                       # Row buffer hit rate, read and write combined (Ratio)
system.mem_ctrl.dram.power_state.pwrStateResidencyTicks::UNDEFINED   1020201161                       # Cumulative time (in ticks) in various power states (Tick)
system.mem_ctrl.dram.rank0.actEnergy          8025360                       # Energy for activate commands per rank (pJ) (Joule)
system.mem_ctrl.dram.rank0.preEnergy          4254195                       # Energy for precharge commands per rank (pJ) (Joule)
system.mem_ctrl.dram.rank0.readEnergy        15729420                       # Energy for read commands per rank (pJ) (Joule)
system.mem_ctrl.dram.rank0.writeEnergy        1832220                       # Energy for write commands per rank (pJ) (Joule)
system.mem_ctrl.dram.rank0.refreshEnergy 80517840.000000                       # Energy for refresh commands per rank (pJ) (Joule)
system.mem_ctrl.dram.rank0.actBackEnergy    425547750                       # Energy for active background per rank (pJ) (Joule)
system.mem_ctrl.dram.rank0.preBackEnergy     33401280                       # Energy for precharge background per rank (pJ) (Joule)
system.mem_ctrl.dram.rank0.actPowerDownEnergy            0                       # Energy for active power-down per rank (pJ) (Joule)
system.mem_ctrl.dram.rank0.prePowerDownEnergy            0                       # Energy for precharge power-down per rank (pJ) (Joule)
system.mem_ctrl.dram.rank0.selfRefreshEnergy            0                       # Energy for self refresh per rank (pJ) (Joule)
system.mem_ctrl.dram.rank0.totalEnergy      569308065                       # Total energy per rank (pJ) (Joule)
system.mem_ctrl.dram.rank0.averagePower    558.035108                       # Core power per rank (mW) (Watt)
system.mem_ctrl.dram.rank0.totalIdleTime            0                       # Total Idle time Per DRAM Rank (Tick)
system.mem_ctrl.dram.rank0.pwrStateTime::IDLE     83235569                       # Time in different power states (Tick)
system.mem_ctrl.dram.rank0.pwrStateTime::REF     34060000                       # Time in different power states (Tick)
system.mem_ctrl.dram.rank0.pwrStateTime::SREF            0                       # Time in different power states (Tick)
system.mem_ctrl.dram.rank0.pwrStateTime::PRE_PDN            0                       # Time in different power states (Tick)
system.mem_ctrl.dram.rank0.pwrStateTime::ACT    902905592                       # Time in different power states (Tick)
system.mem_ctrl.dram.rank0.pwrStateTime::ACT_PDN            0                       # Time in different power states (Tick)
system.mem_ctrl.dram.rank1.actEnergy          8182440                       # Energy for activate commands per rank (pJ) (Joule)
system.mem_ctrl.dram.rank1.preEnergy          4375635                       # Energy for precharge commands per rank (pJ) (Joule)
system.mem_ctrl.dram.rank1.readEnergy        19285140                       # Energy for read commands per rank (pJ) (Joule)
system.mem_ctrl.dram.rank1.writeEnergy         683820                       # Energy for write commands per rank (pJ) (Joule)
system.mem_ctrl.dram.rank1.refreshEnergy 80517840.000000                       # Energy for refresh commands per rank (pJ) (Joule)
system.mem_ctrl.dram.rank1.actBackEnergy    437188860                       # Energy for active background per rank (pJ) (Joule)
system.mem_ctrl.dram.rank1.preBackEnergy     23598240                       # Energy for precharge background per rank (pJ) (Joule)
system.mem_ctrl.dram.rank1.actPowerDownEnergy            0                       # Energy for active power-down per rank (pJ) (Joule)
system.mem_ctrl.dram.rank1.prePowerDownEnergy            0                       # Energy for precharge power-down per rank (pJ) (Joule)
system.mem_ctrl.dram.rank1.selfRefreshEnergy            0                       # Energy for self refresh per rank (pJ) (Joule)
system.mem_ctrl.dram.rank1.totalEnergy      573831975                       # Total energy per rank (pJ) (Joule)
system.mem_ctrl.dram.rank1.averagePower    562.469439                       # Core power per rank (mW) (Watt)
system.mem_ctrl.dram.rank1.totalIdleTime            0                       # Total Idle time Per DRAM Rank (Tick)
system.mem_ctrl.dram.rank1.pwrStateTime::IDLE     57590200                       # Time in different power states (Tick)
system.mem_ctrl.dram.rank1.pwrStateTime::REF     34060000                       # Time in different power states (Tick)
system.mem_ctrl.dram.rank1.pwrStateTime::SREF            0                       # Time in different power states (Tick)
system.mem_ctrl.dram.rank1.pwrStateTime::PRE_PDN            0                       # Time in different power states (Tick)
system.mem_ctrl.dram.rank1.pwrStateTime::ACT    928550961                       # Time in different power states (Tick)
system.mem_ctrl.dram.rank1.pwrStateTime::ACT_PDN            0                       # Time in different power states (Tick)
system.mem_ctrl.power_state.pwrStateResidencyTicks::UNDEFINED   1020201161                       # Cumulative time (in ticks) in various power states (Tick)
system.membus.transDist::ReadResp                4999                       # Transaction distribution (Count)
system.membus.transDist::WritebackDirty           667                       # Transaction distribution (Count)
system.membus.transDist::CleanEvict              4601                       # Transaction distribution (Count)
system.membus.transDist::UpgradeReq                 1                       # Transaction distribution (Count)
system.membus.transDist::ReadExReq                270                       # Transaction distribution (Count)
system.membus.transDist::ReadExResp               270                       # Transaction distribution (Count)
system.membus.transDist::ReadSharedReq           4998                       # Transaction distribution (Count)
system.membus.pktCount_system.cpu.l1d.mem_side_port::system.mem_ctrl.port         7483                       # Packet count per connected requestor and responder (Count)
system.membus.pktCount_system.cpu.l1d.mem_side_port::total         7483                       # Packet count per connected requestor and responder (Count)
system.membus.pktCount_system.cpu.l1i.mem_side_port::system.mem_ctrl.port         8322                       # Packet count per connected requestor and responder (Count)
system.membus.pktCount_system.cpu.l1i.mem_side_port::total         8322                       # Packet count per connected requestor and responder (Count)
system.membus.pktCount::total                   15805                       # Packet count per connected requestor and responder (Count)
system.membus.pktSize_system.cpu.l1d.mem_side_port::system.mem_ctrl.port       202304                       # Cumulative packet size per connected requestor and responder (Byte)
system.membus.pktSize_system.cpu.l1d.mem_side_port::total       202304                       # Cumulative packet size per connected requestor and responder (Byte)
system.membus.pktSize_system.cpu.l1i.mem_side_port::system.mem_ctrl.port       177536                       # Cumulative packet size per connected requestor and responder (Byte)
system.membus.pktSize_system.cpu.l1i.mem_side_port::total       177536                       # Cumulative packet size per connected requestor and responder (Byte)
system.membus.pktSize::total                   379840                       # Cumulative packet size per connected requestor and responder (Byte)
system.membus.snoops                                1                       # Total snoops (Count)
system.membus.snoopTraffic                         64                       # Total snoop traffic (Byte)
system.membus.snoopFanout::samples               5269                       # Request fanout histogram (Count)
system.membus.snoopFanout::mean              0.003986                       # Request fanout histogram (Count)
system.membus.snoopFanout::stdev             0.063011                       # Request fanout histogram (Count)
system.membus.snoopFanout::underflows               0      0.00%      0.00% # Request fanout histogram (Count)
system.membus.snoopFanout::0                     5248     99.60%     99.60% # Request fanout histogram (Count)
system.membus.snoopFanout::1                       21      0.40%    100.00% # Request fanout histogram (Count)
system.membus.snoopFanout::2                        0      0.00%    100.00% # Request fanout histogram (Count)
system.membus.snoopFanout::overflows                0      0.00%    100.00% # Request fanout histogram (Count)
system.membus.snoopFanout::min_value                0                       # Request fanout histogram (Count)
system.membus.snoopFanout::max_value                1                       # Request fanout histogram (Count)
system.membus.snoopFanout::total                 5269                       # Request fanout histogram (Count)
system.membus.power_state.pwrStateResidencyTicks::UNDEFINED   1020201161                       # Cumulative time (in ticks) in various power states (Tick)
system.membus.reqLayer2.occupancy           176062265                       # Layer occupancy (ticks) (Tick)
system.membus.reqLayer2.utilization               0.2                       # Layer utilization (Ratio)
system.membus.respLayer2.occupancy          168841278                       # Layer occupancy (ticks) (Tick)
system.membus.respLayer2.utilization              0.2                       # Layer utilization (Ratio)
system.membus.respLayer3.occupancy          189590578                       # Layer occupancy (ticks) (Tick)
system.membus.respLayer3.utilization              0.2                       # Layer utilization (Ratio)
system.membus.snoop_filter.totRequests          10537                       # Total number of requests made to the snoop filter. (Count)
system.membus.snoop_filter.hitSingleRequests         5269                       # Number of requests hitting in the snoop filter with a single holder of the requested data. (Count)
system.membus.snoop_filter.hitMultiRequests           20                       # Number of requests hitting in the snoop filter with multiple (>1) holders of the requested data. (Count)
system.membus.snoop_filter.totSnoops                0                       # Total number of snoops made to the snoop filter. (Count)
system.membus.snoop_filter.hitSingleSnoops            0                       # Number of snoops hitting in the snoop filter with a single holder of the requested data. (Count)
system.membus.snoop_filter.hitMultiSnoops            0                       # Number of snoops hitting in the snoop filter with multiple (>1) holders of the requested data. (Count)
system.workload.inst.arm                            0                       # number of arm instructions executed (Count)
system.workload.inst.quiesce                        0                       # number of quiesce instructions executed (Count)

---------- End Simulation Statistics   ----------
