
---------- Begin Simulation Statistics ----------
simSeconds                                   2.832179                       # Number of seconds simulated (Second)
simTicks                                 2832179300414                       # Number of ticks simulated (Tick)
finalTick                                2832179300414                       # Number of ticks from beginning of simulation (restored from checkpoints and never reset) (Tick)
simFreq                                  1000000000000                       # The number of ticks per simulated second ((Tick/Second))
hostSeconds                                   1365.67                       # Real time elapsed on the host (Second)
hostTickRate                               2073838303                       # The number of ticks simulated per host second (ticks/s) ((Tick/Second))
hostMemory                                    8699084                       # Number of bytes of host memory used (Byte)
simInsts                                    233256945                       # Number of instructions simulated (Count)
simOps                                      421846218                       # Number of ops (including micro ops) simulated (Count)
hostInstRate                                   170800                       # Simulator instruction rate (inst/s) ((Count/Second))
hostOpRate                                     308893                       # Simulator op (including micro ops) rate (op/s) ((Count/Second))
system.clk_domain.clock                         13333                       # Clock period in ticks (Tick)
system.clk_domain.voltage_domain.voltage            1                       # Voltage in Volts (Volt)
system.cpu.numCycles                        212418759                       # Number of cpu cycles simulated (Cycle)
system.cpu.cpi                               0.910664                       # CPI: cycles per instruction (core level) ((Cycle/Count))
system.cpu.ipc                               1.098100                       # IPC: instructions per cycle (core level) ((Count/Cycle))
system.cpu.numWorkItemsStarted                      0                       # Number of work items this cpu started (Count)
system.cpu.numWorkItemsCompleted                    0                       # Number of work items this cpu completed (Count)
system.cpu.instsAdded                       658279656                       # Number of instructions added to the IQ (excludes non-spec) (Count)
system.cpu.nonSpecInstsAdded                    54072                       # Number of non-speculative instructions added to the IQ (Count)
system.cpu.instsIssued                      587647887                       # Number of instructions issued (Count)
system.cpu.squashedInstsIssued                8239098                       # Number of squashed instructions issued (Count)
system.cpu.squashedInstsExamined            236487499                       # Number of squashed instructions iterated over during squash; mainly for profiling (Count)
system.cpu.squashedOperandsExamined         372405024                       # Number of squashed operands that are examined and possibly removed from graph (Count)
system.cpu.squashedNonSpecRemoved               12642                       # Number of squashed non-spec instructions that were removed (Count)
system.cpu.numIssuedDist::samples           212180890                       # Number of insts issued each cycle (Count)
system.cpu.numIssuedDist::mean               2.769561                       # Number of insts issued each cycle (Count)
system.cpu.numIssuedDist::stdev              2.855070                       # Number of insts issued each cycle (Count)
system.cpu.numIssuedDist::underflows                0      0.00%      0.00% # Number of insts issued each cycle (Count)
system.cpu.numIssuedDist::0                  84572656     39.86%     39.86% # Number of insts issued each cycle (Count)
system.cpu.numIssuedDist::1                  17987328      8.48%     48.34% # Number of insts issued each cycle (Count)
system.cpu.numIssuedDist::2                  13955237      6.58%     54.91% # Number of insts issued each cycle (Count)
system.cpu.numIssuedDist::3                  10995919      5.18%     60.10% # Number of insts issued each cycle (Count)
system.cpu.numIssuedDist::4                  12483801      5.88%     65.98% # Number of insts issued each cycle (Count)
system.cpu.numIssuedDist::5                  14476787      6.82%     72.80% # Number of insts issued each cycle (Count)
system.cpu.numIssuedDist::6                  28867911     13.61%     86.41% # Number of insts issued each cycle (Count)
system.cpu.numIssuedDist::7                  17494285      8.24%     94.65% # Number of insts issued each cycle (Count)
system.cpu.numIssuedDist::8                  11346966      5.35%    100.00% # Number of insts issued each cycle (Count)
system.cpu.numIssuedDist::overflows                 0      0.00%    100.00% # Number of insts issued each cycle (Count)
system.cpu.numIssuedDist::min_value                 0                       # Number of insts issued each cycle (Count)
system.cpu.numIssuedDist::max_value                 8                       # Number of insts issued each cycle (Count)
system.cpu.numIssuedDist::total             212180890                       # Number of insts issued each cycle (Count)
system.cpu.statFuBusy::No_OpClass                   0      0.00%      0.00% # attempts to use FU when none available (Count)
system.cpu.statFuBusy::IntAlu                20267328     92.56%     92.56% # attempts to use FU when none available (Count)
system.cpu.statFuBusy::IntMult                      0      0.00%     92.56% # attempts to use FU when none available (Count)
system.cpu.statFuBusy::IntDiv                       0      0.00%     92.56% # attempts to use FU when none available (Count)
system.cpu.statFuBusy::FloatAdd                 26342      0.12%     92.68% # attempts to use FU when none available (Count)
system.cpu.statFuBusy::FloatCmp                     0      0.00%     92.68% # attempts to use FU when none available (Count)
system.cpu.statFuBusy::FloatCvt                     0      0.00%     92.68% # attempts to use FU when none available (Count)
system.cpu.statFuBusy::FloatMult                    0      0.00%     92.68% # attempts to use FU when none available (Count)
system.cpu.statFuBusy::FloatMultAcc                 0      0.00%     92.68% # attempts to use FU when none available (Count)
system.cpu.statFuBusy::FloatDiv                     0      0.00%     92.68% # attempts to use FU when none available (Count)
system.cpu.statFuBusy::FloatMisc                    0      0.00%     92.68% # attempts to use FU when none available (Count)
system.cpu.statFuBusy::FloatSqrt                    0      0.00%     92.68% # attempts to use FU when none available (Count)
system.cpu.statFuBusy::SimdAdd                      4      0.00%     92.68% # attempts to use FU when none available (Count)
system.cpu.statFuBusy::SimdAddAcc                   0      0.00%     92.68% # attempts to use FU when none available (Count)
system.cpu.statFuBusy::SimdAlu                  57644      0.26%     92.95% # attempts to use FU when none available (Count)
system.cpu.statFuBusy::SimdCmp                      0      0.00%     92.95% # attempts to use FU when none available (Count)
system.cpu.statFuBusy::SimdCvt                    312      0.00%     92.95% # attempts to use FU when none available (Count)
system.cpu.statFuBusy::SimdMisc                    17      0.00%     92.95% # attempts to use FU when none available (Count)
system.cpu.statFuBusy::SimdMult                     0      0.00%     92.95% # attempts to use FU when none available (Count)
system.cpu.statFuBusy::SimdMultAcc                  0      0.00%     92.95% # attempts to use FU when none available (Count)
system.cpu.statFuBusy::SimdMatMultAcc               0      0.00%     92.95% # attempts to use FU when none available (Count)
system.cpu.statFuBusy::SimdShift                   58      0.00%     92.95% # attempts to use FU when none available (Count)
system.cpu.statFuBusy::SimdShiftAcc                 0      0.00%     92.95% # attempts to use FU when none available (Count)
system.cpu.statFuBusy::SimdDiv                      0      0.00%     92.95% # attempts to use FU when none available (Count)
system.cpu.statFuBusy::SimdSqrt                     0      0.00%     92.95% # attempts to use FU when none available (Count)
system.cpu.statFuBusy::SimdFloatAdd             24501      0.11%     93.06% # attempts to use FU when none available (Count)
system.cpu.statFuBusy::SimdFloatAlu                 0      0.00%     93.06% # attempts to use FU when none available (Count)
system.cpu.statFuBusy::SimdFloatCmp                53      0.00%     93.06% # attempts to use FU when none available (Count)
system.cpu.statFuBusy::SimdFloatCvt               478      0.00%     93.06% # attempts to use FU when none available (Count)
system.cpu.statFuBusy::SimdFloatDiv                 0      0.00%     93.06% # attempts to use FU when none available (Count)
system.cpu.statFuBusy::SimdFloatMisc                0      0.00%     93.06% # attempts to use FU when none available (Count)
system.cpu.statFuBusy::SimdFloatMult             4536      0.02%     93.08% # attempts to use FU when none available (Count)
system.cpu.statFuBusy::SimdFloatMultAcc             0      0.00%     93.08% # attempts to use FU when none available (Count)
system.cpu.statFuBusy::SimdFloatMatMultAcc            0      0.00%     93.08% # attempts to use FU when none available (Count)
system.cpu.statFuBusy::SimdFloatSqrt             1602      0.01%     93.09% # attempts to use FU when none available (Count)
system.cpu.statFuBusy::SimdReduceAdd                0      0.00%     93.09% # attempts to use FU when none available (Count)
system.cpu.statFuBusy::SimdReduceAlu                0      0.00%     93.09% # attempts to use FU when none available (Count)
system.cpu.statFuBusy::SimdReduceCmp                0      0.00%     93.09% # attempts to use FU when none available (Count)
system.cpu.statFuBusy::SimdFloatReduceAdd            0      0.00%     93.09% # attempts to use FU when none available (Count)
system.cpu.statFuBusy::SimdFloatReduceCmp            0      0.00%     93.09% # attempts to use FU when none available (Count)
system.cpu.statFuBusy::SimdAes                      0      0.00%     93.09% # attempts to use FU when none available (Count)
system.cpu.statFuBusy::SimdAesMix                   0      0.00%     93.09% # attempts to use FU when none available (Count)
system.cpu.statFuBusy::SimdSha1Hash                 0      0.00%     93.09% # attempts to use FU when none available (Count)
system.cpu.statFuBusy::SimdSha1Hash2                0      0.00%     93.09% # attempts to use FU when none available (Count)
system.cpu.statFuBusy::SimdSha256Hash               0      0.00%     93.09% # attempts to use FU when none available (Count)
system.cpu.statFuBusy::SimdSha256Hash2              0      0.00%     93.09% # attempts to use FU when none available (Count)
system.cpu.statFuBusy::SimdShaSigma2                0      0.00%     93.09% # attempts to use FU when none available (Count)
system.cpu.statFuBusy::SimdShaSigma3                0      0.00%     93.09% # attempts to use FU when none available (Count)
system.cpu.statFuBusy::SimdPredAlu                  0      0.00%     93.09% # attempts to use FU when none available (Count)
system.cpu.statFuBusy::Matrix                       0      0.00%     93.09% # attempts to use FU when none available (Count)
system.cpu.statFuBusy::MatrixMov                    0      0.00%     93.09% # attempts to use FU when none available (Count)
system.cpu.statFuBusy::MatrixOP                     0      0.00%     93.09% # attempts to use FU when none available (Count)
system.cpu.statFuBusy::MemRead                 524850      2.40%     95.49% # attempts to use FU when none available (Count)
system.cpu.statFuBusy::MemWrite                266429      1.22%     96.70% # attempts to use FU when none available (Count)
system.cpu.statFuBusy::FloatMemRead            694460      3.17%     99.88% # attempts to use FU when none available (Count)
system.cpu.statFuBusy::FloatMemWrite            27205      0.12%    100.00% # attempts to use FU when none available (Count)
system.cpu.statFuBusy::IprAccess                    0      0.00%    100.00% # attempts to use FU when none available (Count)
system.cpu.statFuBusy::InstPrefetch                 0      0.00%    100.00% # attempts to use FU when none available (Count)
system.cpu.statFuBusy::SimdUnitStrideLoad            0      0.00%    100.00% # attempts to use FU when none available (Count)
system.cpu.statFuBusy::SimdUnitStrideStore            0      0.00%    100.00% # attempts to use FU when none available (Count)
system.cpu.statFuBusy::SimdUnitStrideMaskLoad            0      0.00%    100.00% # attempts to use FU when none available (Count)
system.cpu.statFuBusy::SimdUnitStrideMaskStore            0      0.00%    100.00% # attempts to use FU when none available (Count)
system.cpu.statFuBusy::SimdStridedLoad              0      0.00%    100.00% # attempts to use FU when none available (Count)
system.cpu.statFuBusy::SimdStridedStore             0      0.00%    100.00% # attempts to use FU when none available (Count)
system.cpu.statFuBusy::SimdIndexedLoad              0      0.00%    100.00% # attempts to use FU when none available (Count)
system.cpu.statFuBusy::SimdIndexedStore             0      0.00%    100.00% # attempts to use FU when none available (Count)
system.cpu.statFuBusy::SimdWholeRegisterLoad            0      0.00%    100.00% # attempts to use FU when none available (Count)
system.cpu.statFuBusy::SimdWholeRegisterStore            0      0.00%    100.00% # attempts to use FU when none available (Count)
system.cpu.statFuBusy::SimdUnitStrideFaultOnlyFirstLoad            0      0.00%    100.00% # attempts to use FU when none available (Count)
system.cpu.statFuBusy::SimdUnitStrideSegmentedLoad            0      0.00%    100.00% # attempts to use FU when none available (Count)
system.cpu.statFuBusy::SimdUnitStrideSegmentedStore            0      0.00%    100.00% # attempts to use FU when none available (Count)
system.cpu.statFuBusy::SimdExt                      0      0.00%    100.00% # attempts to use FU when none available (Count)
system.cpu.statFuBusy::SimdFloatExt                 0      0.00%    100.00% # attempts to use FU when none available (Count)
system.cpu.statFuBusy::SimdConfig                   0      0.00%    100.00% # attempts to use FU when none available (Count)
system.cpu.statIssuedInstType_0::No_OpClass      2423566      0.41%      0.41% # Number of instructions issued per FU type, per thread (Count)
system.cpu.statIssuedInstType_0::IntAlu     427655444     72.77%     73.19% # Number of instructions issued per FU type, per thread (Count)
system.cpu.statIssuedInstType_0::IntMult       210526      0.04%     73.22% # Number of instructions issued per FU type, per thread (Count)
system.cpu.statIssuedInstType_0::IntDiv       2188519      0.37%     73.59% # Number of instructions issued per FU type, per thread (Count)
system.cpu.statIssuedInstType_0::FloatAdd     20721028      3.53%     77.12% # Number of instructions issued per FU type, per thread (Count)
system.cpu.statIssuedInstType_0::FloatCmp            0      0.00%     77.12% # Number of instructions issued per FU type, per thread (Count)
system.cpu.statIssuedInstType_0::FloatCvt         1708      0.00%     77.12% # Number of instructions issued per FU type, per thread (Count)
system.cpu.statIssuedInstType_0::FloatMult            0      0.00%     77.12% # Number of instructions issued per FU type, per thread (Count)
system.cpu.statIssuedInstType_0::FloatMultAcc            0      0.00%     77.12% # Number of instructions issued per FU type, per thread (Count)
system.cpu.statIssuedInstType_0::FloatDiv            0      0.00%     77.12% # Number of instructions issued per FU type, per thread (Count)
system.cpu.statIssuedInstType_0::FloatMisc            0      0.00%     77.12% # Number of instructions issued per FU type, per thread (Count)
system.cpu.statIssuedInstType_0::FloatSqrt            0      0.00%     77.12% # Number of instructions issued per FU type, per thread (Count)
system.cpu.statIssuedInstType_0::SimdAdd         7898      0.00%     77.12% # Number of instructions issued per FU type, per thread (Count)
system.cpu.statIssuedInstType_0::SimdAddAcc            0      0.00%     77.12% # Number of instructions issued per FU type, per thread (Count)
system.cpu.statIssuedInstType_0::SimdAlu      3347182      0.57%     77.69% # Number of instructions issued per FU type, per thread (Count)
system.cpu.statIssuedInstType_0::SimdCmp           20      0.00%     77.69% # Number of instructions issued per FU type, per thread (Count)
system.cpu.statIssuedInstType_0::SimdCvt       114117      0.02%     77.71% # Number of instructions issued per FU type, per thread (Count)
system.cpu.statIssuedInstType_0::SimdMisc       464455      0.08%     77.79% # Number of instructions issued per FU type, per thread (Count)
system.cpu.statIssuedInstType_0::SimdMult            0      0.00%     77.79% # Number of instructions issued per FU type, per thread (Count)
system.cpu.statIssuedInstType_0::SimdMultAcc            0      0.00%     77.79% # Number of instructions issued per FU type, per thread (Count)
system.cpu.statIssuedInstType_0::SimdMatMultAcc            0      0.00%     77.79% # Number of instructions issued per FU type, per thread (Count)
system.cpu.statIssuedInstType_0::SimdShift         5604      0.00%     77.79% # Number of instructions issued per FU type, per thread (Count)
system.cpu.statIssuedInstType_0::SimdShiftAcc            0      0.00%     77.79% # Number of instructions issued per FU type, per thread (Count)
system.cpu.statIssuedInstType_0::SimdDiv            0      0.00%     77.79% # Number of instructions issued per FU type, per thread (Count)
system.cpu.statIssuedInstType_0::SimdSqrt            0      0.00%     77.79% # Number of instructions issued per FU type, per thread (Count)
system.cpu.statIssuedInstType_0::SimdFloatAdd     13619329      2.32%     80.11% # Number of instructions issued per FU type, per thread (Count)
system.cpu.statIssuedInstType_0::SimdFloatAlu            0      0.00%     80.11% # Number of instructions issued per FU type, per thread (Count)
system.cpu.statIssuedInstType_0::SimdFloatCmp       767958      0.13%     80.24% # Number of instructions issued per FU type, per thread (Count)
system.cpu.statIssuedInstType_0::SimdFloatCvt      6169228      1.05%     81.29% # Number of instructions issued per FU type, per thread (Count)
system.cpu.statIssuedInstType_0::SimdFloatDiv        96005      0.02%     81.31% # Number of instructions issued per FU type, per thread (Count)
system.cpu.statIssuedInstType_0::SimdFloatMisc            0      0.00%     81.31% # Number of instructions issued per FU type, per thread (Count)
system.cpu.statIssuedInstType_0::SimdFloatMult      5769818      0.98%     82.29% # Number of instructions issued per FU type, per thread (Count)
system.cpu.statIssuedInstType_0::SimdFloatMultAcc            0      0.00%     82.29% # Number of instructions issued per FU type, per thread (Count)
system.cpu.statIssuedInstType_0::SimdFloatMatMultAcc            0      0.00%     82.29% # Number of instructions issued per FU type, per thread (Count)
system.cpu.statIssuedInstType_0::SimdFloatSqrt       832557      0.14%     82.43% # Number of instructions issued per FU type, per thread (Count)
system.cpu.statIssuedInstType_0::SimdReduceAdd            0      0.00%     82.43% # Number of instructions issued per FU type, per thread (Count)
system.cpu.statIssuedInstType_0::SimdReduceAlu            0      0.00%     82.43% # Number of instructions issued per FU type, per thread (Count)
system.cpu.statIssuedInstType_0::SimdReduceCmp            0      0.00%     82.43% # Number of instructions issued per FU type, per thread (Count)
system.cpu.statIssuedInstType_0::SimdFloatReduceAdd            0      0.00%     82.43% # Number of instructions issued per FU type, per thread (Count)
system.cpu.statIssuedInstType_0::SimdFloatReduceCmp            0      0.00%     82.43% # Number of instructions issued per FU type, per thread (Count)
system.cpu.statIssuedInstType_0::SimdAes            0      0.00%     82.43% # Number of instructions issued per FU type, per thread (Count)
system.cpu.statIssuedInstType_0::SimdAesMix            0      0.00%     82.43% # Number of instructions issued per FU type, per thread (Count)
system.cpu.statIssuedInstType_0::SimdSha1Hash            0      0.00%     82.43% # Number of instructions issued per FU type, per thread (Count)
system.cpu.statIssuedInstType_0::SimdSha1Hash2            0      0.00%     82.43% # Number of instructions issued per FU type, per thread (Count)
system.cpu.statIssuedInstType_0::SimdSha256Hash            0      0.00%     82.43% # Number of instructions issued per FU type, per thread (Count)
system.cpu.statIssuedInstType_0::SimdSha256Hash2            0      0.00%     82.43% # Number of instructions issued per FU type, per thread (Count)
system.cpu.statIssuedInstType_0::SimdShaSigma2            0      0.00%     82.43% # Number of instructions issued per FU type, per thread (Count)
system.cpu.statIssuedInstType_0::SimdShaSigma3            0      0.00%     82.43% # Number of instructions issued per FU type, per thread (Count)
system.cpu.statIssuedInstType_0::SimdPredAlu            0      0.00%     82.43% # Number of instructions issued per FU type, per thread (Count)
system.cpu.statIssuedInstType_0::Matrix             0      0.00%     82.43% # Number of instructions issued per FU type, per thread (Count)
system.cpu.statIssuedInstType_0::MatrixMov            0      0.00%     82.43% # Number of instructions issued per FU type, per thread (Count)
system.cpu.statIssuedInstType_0::MatrixOP            0      0.00%     82.43% # Number of instructions issued per FU type, per thread (Count)
system.cpu.statIssuedInstType_0::MemRead     60003611     10.21%     92.64% # Number of instructions issued per FU type, per thread (Count)
system.cpu.statIssuedInstType_0::MemWrite     17699237      3.01%     95.65% # Number of instructions issued per FU type, per thread (Count)
system.cpu.statIssuedInstType_0::FloatMemRead     24648316      4.19%     99.85% # Number of instructions issued per FU type, per thread (Count)
system.cpu.statIssuedInstType_0::FloatMemWrite       901761      0.15%    100.00% # Number of instructions issued per FU type, per thread (Count)
system.cpu.statIssuedInstType_0::IprAccess            0      0.00%    100.00% # Number of instructions issued per FU type, per thread (Count)
system.cpu.statIssuedInstType_0::InstPrefetch            0      0.00%    100.00% # Number of instructions issued per FU type, per thread (Count)
system.cpu.statIssuedInstType_0::SimdUnitStrideLoad            0      0.00%    100.00% # Number of instructions issued per FU type, per thread (Count)
system.cpu.statIssuedInstType_0::SimdUnitStrideStore            0      0.00%    100.00% # Number of instructions issued per FU type, per thread (Count)
system.cpu.statIssuedInstType_0::SimdUnitStrideMaskLoad            0      0.00%    100.00% # Number of instructions issued per FU type, per thread (Count)
system.cpu.statIssuedInstType_0::SimdUnitStrideMaskStore            0      0.00%    100.00% # Number of instructions issued per FU type, per thread (Count)
system.cpu.statIssuedInstType_0::SimdStridedLoad            0      0.00%    100.00% # Number of instructions issued per FU type, per thread (Count)
system.cpu.statIssuedInstType_0::SimdStridedStore            0      0.00%    100.00% # Number of instructions issued per FU type, per thread (Count)
system.cpu.statIssuedInstType_0::SimdIndexedLoad            0      0.00%    100.00% # Number of instructions issued per FU type, per thread (Count)
system.cpu.statIssuedInstType_0::SimdIndexedStore            0      0.00%    100.00% # Number of instructions issued per FU type, per thread (Count)
system.cpu.statIssuedInstType_0::SimdWholeRegisterLoad            0      0.00%    100.00% # Number of instructions issued per FU type, per thread (Count)
system.cpu.statIssuedInstType_0::SimdWholeRegisterStore            0      0.00%    100.00% # Number of instructions issued per FU type, per thread (Count)
system.cpu.statIssuedInstType_0::SimdUnitStrideFaultOnlyFirstLoad            0      0.00%    100.00% # Number of instructions issued per FU type, per thread (Count)
system.cpu.statIssuedInstType_0::SimdUnitStrideSegmentedLoad            0      0.00%    100.00% # Number of instructions issued per FU type, per thread (Count)
system.cpu.statIssuedInstType_0::SimdUnitStrideSegmentedStore            0      0.00%    100.00% # Number of instructions issued per FU type, per thread (Count)
system.cpu.statIssuedInstType_0::SimdExt            0      0.00%    100.00% # Number of instructions issued per FU type, per thread (Count)
system.cpu.statIssuedInstType_0::SimdFloatExt            0      0.00%    100.00% # Number of instructions issued per FU type, per thread (Count)
system.cpu.statIssuedInstType_0::SimdConfig            0      0.00%    100.00% # Number of instructions issued per FU type, per thread (Count)
system.cpu.statIssuedInstType_0::total      587647887                       # Number of instructions issued per FU type, per thread (Count)
system.cpu.issueRate                         2.766459                       # Inst issue rate ((Count/Cycle))
system.cpu.fuBusy                            21895819                       # FU busy when requested (Count)
system.cpu.fuBusyRate                        0.037260                       # FU busy rate (busy events/executed inst) ((Count/Count))
system.cpu.intInstQueueReads               1232640129                       # Number of integer instruction queue reads (Count)
system.cpu.intInstQueueWrites               755444083                       # Number of integer instruction queue writes (Count)
system.cpu.intInstQueueWakeupAccesses       479742411                       # Number of integer instruction queue wakeup accesses (Count)
system.cpu.fpInstQueueReads                 184971452                       # Number of floating instruction queue reads (Count)
system.cpu.fpInstQueueWrites                139389375                       # Number of floating instruction queue writes (Count)
system.cpu.fpInstQueueWakeupAccesses         86684651                       # Number of floating instruction queue wakeup accesses (Count)
system.cpu.vecInstQueueReads                        0                       # Number of vector instruction queue reads (Count)
system.cpu.vecInstQueueWrites                       0                       # Number of vector instruction queue writes (Count)
system.cpu.vecInstQueueWakeupAccesses               0                       # Number of vector instruction queue wakeup accesses (Count)
system.cpu.intAluAccesses                   514190636                       # Number of integer alu accesses (Count)
system.cpu.fpAluAccesses                     92929504                       # Number of floating point alu accesses (Count)
system.cpu.vecAluAccesses                           0                       # Number of vector alu accesses (Count)
system.cpu.numSquashedInsts                  16409455                       # Number of squashed instructions skipped in execute (Count)
system.cpu.numSwp                                   0                       # Number of swp insts executed (Count)
system.cpu.timesIdled                           45541                       # Number of times that the entire CPU went into an idle state and unscheduled itself (Count)
system.cpu.idleCycles                          237869                       # Total number of cycles that the CPU has spent unscheduled due to idling (Cycle)
system.cpu.MemDepUnit__0.insertedLoads       92119300                       # Number of loads inserted to the mem dependence unit. (Count)
system.cpu.MemDepUnit__0.insertedStores      21322542                       # Number of stores inserted to the mem dependence unit. (Count)
system.cpu.MemDepUnit__0.conflictingLoads      3164926                       # Number of conflicting loads. (Count)
system.cpu.MemDepUnit__0.conflictingStores      3787431                       # Number of conflicting stores. (Count)
system.cpu.MemDepUnit__1.insertedLoads              0                       # Number of loads inserted to the mem dependence unit. (Count)
system.cpu.MemDepUnit__1.insertedStores             0                       # Number of stores inserted to the mem dependence unit. (Count)
system.cpu.MemDepUnit__1.conflictingLoads            0                       # Number of conflicting loads. (Count)
system.cpu.MemDepUnit__1.conflictingStores            0                       # Number of conflicting stores. (Count)
system.cpu.MemDepUnit__2.insertedLoads              0                       # Number of loads inserted to the mem dependence unit. (Count)
system.cpu.MemDepUnit__2.insertedStores             0                       # Number of stores inserted to the mem dependence unit. (Count)
system.cpu.MemDepUnit__2.conflictingLoads            0                       # Number of conflicting loads. (Count)
system.cpu.MemDepUnit__2.conflictingStores            0                       # Number of conflicting stores. (Count)
system.cpu.MemDepUnit__3.insertedLoads              0                       # Number of loads inserted to the mem dependence unit. (Count)
system.cpu.MemDepUnit__3.insertedStores             0                       # Number of stores inserted to the mem dependence unit. (Count)
system.cpu.MemDepUnit__3.conflictingLoads            0                       # Number of conflicting loads. (Count)
system.cpu.MemDepUnit__3.conflictingStores            0                       # Number of conflicting stores. (Count)
system.cpu.branchPred.lookups_0::NoBranch         4948      0.01%      0.01% # Number of BP lookups (Count)
system.cpu.branchPred.lookups_0::Return       1971913      2.14%      2.15% # Number of BP lookups (Count)
system.cpu.branchPred.lookups_0::CallDirect      2041731      2.22%      4.37% # Number of BP lookups (Count)
system.cpu.branchPred.lookups_0::CallIndirect         1467      0.00%      4.37% # Number of BP lookups (Count)
system.cpu.branchPred.lookups_0::DirectCond     76760021     83.38%     87.75% # Number of BP lookups (Count)
system.cpu.branchPred.lookups_0::DirectUncond     10829352     11.76%     99.51% # Number of BP lookups (Count)
system.cpu.branchPred.lookups_0::IndirectCond            0      0.00%     99.51% # Number of BP lookups (Count)
system.cpu.branchPred.lookups_0::IndirectUncond       446728      0.49%    100.00% # Number of BP lookups (Count)
system.cpu.branchPred.lookups_0::total       92056160                       # Number of BP lookups (Count)
system.cpu.branchPred.squashes_0::NoBranch         4595      0.01%      0.01% # Number of branches that got squashed (completely removed) as an earlier branch was mispredicted. (Count)
system.cpu.branchPred.squashes_0::Return       948784      2.06%      2.07% # Number of branches that got squashed (completely removed) as an earlier branch was mispredicted. (Count)
system.cpu.branchPred.squashes_0::CallDirect      1019222      2.21%      4.29% # Number of branches that got squashed (completely removed) as an earlier branch was mispredicted. (Count)
system.cpu.branchPred.squashes_0::CallIndirect          842      0.00%      4.29% # Number of branches that got squashed (completely removed) as an earlier branch was mispredicted. (Count)
system.cpu.branchPred.squashes_0::DirectCond     37707896     81.94%     86.23% # Number of branches that got squashed (completely removed) as an earlier branch was mispredicted. (Count)
system.cpu.branchPred.squashes_0::DirectUncond      6187303     13.45%     99.67% # Number of branches that got squashed (completely removed) as an earlier branch was mispredicted. (Count)
system.cpu.branchPred.squashes_0::IndirectCond            0      0.00%     99.67% # Number of branches that got squashed (completely removed) as an earlier branch was mispredicted. (Count)
system.cpu.branchPred.squashes_0::IndirectUncond       149562      0.33%    100.00% # Number of branches that got squashed (completely removed) as an earlier branch was mispredicted. (Count)
system.cpu.branchPred.squashes_0::total      46018204                       # Number of branches that got squashed (completely removed) as an earlier branch was mispredicted. (Count)
system.cpu.branchPred.corrected_0::NoBranch          465      0.01%      0.01% # Number of branches that got corrected but not yet commited. Branches get corrected by decode or after execute. Also a branch misprediction can be detected out-of-order. Therefore, a corrected branch might not end up beeing committed in case an even earlier branch was mispredicted (Count)
system.cpu.branchPred.corrected_0::Return          674      0.01%      0.02% # Number of branches that got corrected but not yet commited. Branches get corrected by decode or after execute. Also a branch misprediction can be detected out-of-order. Therefore, a corrected branch might not end up beeing committed in case an even earlier branch was mispredicted (Count)
system.cpu.branchPred.corrected_0::CallDirect         1383      0.02%      0.04% # Number of branches that got corrected but not yet commited. Branches get corrected by decode or after execute. Also a branch misprediction can be detected out-of-order. Therefore, a corrected branch might not end up beeing committed in case an even earlier branch was mispredicted (Count)
system.cpu.branchPred.corrected_0::CallIndirect          250      0.00%      0.04% # Number of branches that got corrected but not yet commited. Branches get corrected by decode or after execute. Also a branch misprediction can be detected out-of-order. Therefore, a corrected branch might not end up beeing committed in case an even earlier branch was mispredicted (Count)
system.cpu.branchPred.corrected_0::DirectCond      6612853     99.88%     99.92% # Number of branches that got corrected but not yet commited. Branches get corrected by decode or after execute. Also a branch misprediction can be detected out-of-order. Therefore, a corrected branch might not end up beeing committed in case an even earlier branch was mispredicted (Count)
system.cpu.branchPred.corrected_0::DirectUncond         3732      0.06%     99.98% # Number of branches that got corrected but not yet commited. Branches get corrected by decode or after execute. Also a branch misprediction can be detected out-of-order. Therefore, a corrected branch might not end up beeing committed in case an even earlier branch was mispredicted (Count)
system.cpu.branchPred.corrected_0::IndirectCond            0      0.00%     99.98% # Number of branches that got corrected but not yet commited. Branches get corrected by decode or after execute. Also a branch misprediction can be detected out-of-order. Therefore, a corrected branch might not end up beeing committed in case an even earlier branch was mispredicted (Count)
system.cpu.branchPred.corrected_0::IndirectUncond         1546      0.02%    100.00% # Number of branches that got corrected but not yet commited. Branches get corrected by decode or after execute. Also a branch misprediction can be detected out-of-order. Therefore, a corrected branch might not end up beeing committed in case an even earlier branch was mispredicted (Count)
system.cpu.branchPred.corrected_0::total      6620903                       # Number of branches that got corrected but not yet commited. Branches get corrected by decode or after execute. Also a branch misprediction can be detected out-of-order. Therefore, a corrected branch might not end up beeing committed in case an even earlier branch was mispredicted (Count)
system.cpu.branchPred.earlyResteers_0::NoBranch            0                       # Number of branches that got redirected after decode. (Count)
system.cpu.branchPred.earlyResteers_0::Return            0                       # Number of branches that got redirected after decode. (Count)
system.cpu.branchPred.earlyResteers_0::CallDirect            0                       # Number of branches that got redirected after decode. (Count)
system.cpu.branchPred.earlyResteers_0::CallIndirect            0                       # Number of branches that got redirected after decode. (Count)
system.cpu.branchPred.earlyResteers_0::DirectCond            0                       # Number of branches that got redirected after decode. (Count)
system.cpu.branchPred.earlyResteers_0::DirectUncond            0                       # Number of branches that got redirected after decode. (Count)
system.cpu.branchPred.earlyResteers_0::IndirectCond            0                       # Number of branches that got redirected after decode. (Count)
system.cpu.branchPred.earlyResteers_0::IndirectUncond            0                       # Number of branches that got redirected after decode. (Count)
system.cpu.branchPred.earlyResteers_0::total            0                       # Number of branches that got redirected after decode. (Count)
system.cpu.branchPred.committed_0::NoBranch          353      0.00%      0.00% # Number of branches finally committed  (Count)
system.cpu.branchPred.committed_0::Return      1023128      2.22%      2.22% # Number of branches finally committed  (Count)
system.cpu.branchPred.committed_0::CallDirect      1022508      2.22%      4.44% # Number of branches finally committed  (Count)
system.cpu.branchPred.committed_0::CallIndirect          625      0.00%      4.45% # Number of branches finally committed  (Count)
system.cpu.branchPred.committed_0::DirectCond     39052125     84.83%     89.27% # Number of branches finally committed  (Count)
system.cpu.branchPred.committed_0::DirectUncond      4642049     10.08%     99.35% # Number of branches finally committed  (Count)
system.cpu.branchPred.committed_0::IndirectCond            0      0.00%     99.35% # Number of branches finally committed  (Count)
system.cpu.branchPred.committed_0::IndirectUncond       297166      0.65%    100.00% # Number of branches finally committed  (Count)
system.cpu.branchPred.committed_0::total     46037954                       # Number of branches finally committed  (Count)
system.cpu.branchPred.mispredicted_0::NoBranch          353      0.01%      0.01% # Number of committed branches that were mispredicted. (Count)
system.cpu.branchPred.mispredicted_0::Return          656      0.01%      0.02% # Number of committed branches that were mispredicted. (Count)
system.cpu.branchPred.mispredicted_0::CallDirect          903      0.01%      0.03% # Number of committed branches that were mispredicted. (Count)
system.cpu.branchPred.mispredicted_0::CallIndirect          230      0.00%      0.03% # Number of committed branches that were mispredicted. (Count)
system.cpu.branchPred.mispredicted_0::DirectCond      6251869     99.89%     99.92% # Number of committed branches that were mispredicted. (Count)
system.cpu.branchPred.mispredicted_0::DirectUncond         3354      0.05%     99.98% # Number of committed branches that were mispredicted. (Count)
system.cpu.branchPred.mispredicted_0::IndirectCond            0      0.00%     99.98% # Number of committed branches that were mispredicted. (Count)
system.cpu.branchPred.mispredicted_0::IndirectUncond         1451      0.02%    100.00% # Number of committed branches that were mispredicted. (Count)
system.cpu.branchPred.mispredicted_0::total      6258816                       # Number of committed branches that were mispredicted. (Count)
system.cpu.branchPred.targetProvider_0::NoTarget     40115468     43.58%     43.58% # The component providing the target for taken branches (Count)
system.cpu.branchPred.targetProvider_0::BTB     49637398     53.92%     97.50% # The component providing the target for taken branches (Count)
system.cpu.branchPred.targetProvider_0::RAS      1971913      2.14%     99.64% # The component providing the target for taken branches (Count)
system.cpu.branchPred.targetProvider_0::Indirect       331381      0.36%    100.00% # The component providing the target for taken branches (Count)
system.cpu.branchPred.targetProvider_0::total     92056160                       # The component providing the target for taken branches (Count)
system.cpu.branchPred.targetWrong_0::NoBranch      2809901     43.26%     43.26% # Number of branches where the target was incorrect or not available at prediction time. (Count)
system.cpu.branchPred.targetWrong_0::Return      3685087     56.73%     99.99% # Number of branches where the target was incorrect or not available at prediction time. (Count)
system.cpu.branchPred.targetWrong_0::CallDirect          674      0.01%    100.00% # Number of branches where the target was incorrect or not available at prediction time. (Count)
system.cpu.branchPred.targetWrong_0::CallIndirect          168      0.00%    100.00% # Number of branches where the target was incorrect or not available at prediction time. (Count)
system.cpu.branchPred.targetWrong_0::DirectCond            0      0.00%    100.00% # Number of branches where the target was incorrect or not available at prediction time. (Count)
system.cpu.branchPred.targetWrong_0::DirectUncond            0      0.00%    100.00% # Number of branches where the target was incorrect or not available at prediction time. (Count)
system.cpu.branchPred.targetWrong_0::IndirectCond            0      0.00%    100.00% # Number of branches where the target was incorrect or not available at prediction time. (Count)
system.cpu.branchPred.targetWrong_0::IndirectUncond            0      0.00%    100.00% # Number of branches where the target was incorrect or not available at prediction time. (Count)
system.cpu.branchPred.targetWrong_0::total      6495830                       # Number of branches where the target was incorrect or not available at prediction time. (Count)
system.cpu.branchPred.condPredicted          76764969                       # Number of conditional branches predicted (Count)
system.cpu.branchPred.condPredictedTaken     36793895                       # Number of conditional branches predicted as taken (Count)
system.cpu.branchPred.condIncorrect           6620903                       # Number of conditional branches incorrect (Count)
system.cpu.branchPred.predTakenBTBMiss           2761                       # Number of branches predicted taken but missed in BTB (Count)
system.cpu.branchPred.NotTakenMispredicted      2884969                       # Number branches predicted 'not taken' but turned out to be taken (Count)
system.cpu.branchPred.TakenMispredicted       3735934                       # Number branches predicted taken but are actually not taken (Count)
system.cpu.branchPred.BTBLookups             92056160                       # Number of BTB lookups (Count)
system.cpu.branchPred.BTBUpdates              2882034                       # Number of BTB updates (Count)
system.cpu.branchPred.BTBHits                76626611                       # Number of BTB hits (Count)
system.cpu.branchPred.BTBHitRatio            0.832390                       # BTB Hit Ratio (Ratio)
system.cpu.branchPred.BTBMispredicted            3836                       # Number BTB mispredictions. No target found or target wrong (Count)
system.cpu.branchPred.indirectLookups          448195                       # Number of indirect predictor lookups. (Count)
system.cpu.branchPred.indirectHits             331381                       # Number of indirect target hits. (Count)
system.cpu.branchPred.indirectMisses           116814                       # Number of indirect misses. (Count)
system.cpu.branchPred.indirectMispredicted            0                       # Number of mispredicted indirect branches. (Count)
system.cpu.branchPred.btb.lookups::NoBranch         4948      0.01%      0.01% # Number of BTB lookups (Count)
system.cpu.branchPred.btb.lookups::Return      1971913      2.14%      2.15% # Number of BTB lookups (Count)
system.cpu.branchPred.btb.lookups::CallDirect      2041731      2.22%      4.37% # Number of BTB lookups (Count)
system.cpu.branchPred.btb.lookups::CallIndirect         1467      0.00%      4.37% # Number of BTB lookups (Count)
system.cpu.branchPred.btb.lookups::DirectCond     76760021     83.38%     87.75% # Number of BTB lookups (Count)
system.cpu.branchPred.btb.lookups::DirectUncond     10829352     11.76%     99.51% # Number of BTB lookups (Count)
system.cpu.branchPred.btb.lookups::IndirectCond            0      0.00%     99.51% # Number of BTB lookups (Count)
system.cpu.branchPred.btb.lookups::IndirectUncond       446728      0.49%    100.00% # Number of BTB lookups (Count)
system.cpu.branchPred.btb.lookups::total     92056160                       # Number of BTB lookups (Count)
system.cpu.branchPred.btb.misses::NoBranch          331      0.00%      0.00% # Number of BTB misses (Count)
system.cpu.branchPred.btb.misses::Return      1968370     12.76%     12.76% # Number of BTB misses (Count)
system.cpu.branchPred.btb.misses::CallDirect         2280      0.01%     12.77% # Number of BTB misses (Count)
system.cpu.branchPred.btb.misses::CallIndirect         1467      0.01%     12.78% # Number of BTB misses (Count)
system.cpu.branchPred.btb.misses::DirectCond     13009062     84.31%     97.10% # Number of BTB misses (Count)
system.cpu.branchPred.btb.misses::DirectUncond         1311      0.01%     97.10% # Number of BTB misses (Count)
system.cpu.branchPred.btb.misses::IndirectCond            0      0.00%     97.10% # Number of BTB misses (Count)
system.cpu.branchPred.btb.misses::IndirectUncond       446728      2.90%    100.00% # Number of BTB misses (Count)
system.cpu.branchPred.btb.misses::total      15429549                       # Number of BTB misses (Count)
system.cpu.branchPred.btb.updates::NoBranch            0      0.00%      0.00% # Number of BTB updates (Count)
system.cpu.branchPred.btb.updates::Return            0      0.00%      0.00% # Number of BTB updates (Count)
system.cpu.branchPred.btb.updates::CallDirect         1383      0.05%      0.05% # Number of BTB updates (Count)
system.cpu.branchPred.btb.updates::CallIndirect            0      0.00%      0.05% # Number of BTB updates (Count)
system.cpu.branchPred.btb.updates::DirectCond      2876919     99.82%     99.87% # Number of BTB updates (Count)
system.cpu.branchPred.btb.updates::DirectUncond         3732      0.13%    100.00% # Number of BTB updates (Count)
system.cpu.branchPred.btb.updates::IndirectCond            0      0.00%    100.00% # Number of BTB updates (Count)
system.cpu.branchPred.btb.updates::IndirectUncond            0      0.00%    100.00% # Number of BTB updates (Count)
system.cpu.branchPred.btb.updates::total      2882034                       # Number of BTB updates (Count)
system.cpu.branchPred.btb.mispredict::NoBranch            0      0.00%      0.00% # Number of BTB mispredictions. No target found or target wrong. (Count)
system.cpu.branchPred.btb.mispredict::Return            0      0.00%      0.00% # Number of BTB mispredictions. No target found or target wrong. (Count)
system.cpu.branchPred.btb.mispredict::CallDirect         1383      0.05%      0.05% # Number of BTB mispredictions. No target found or target wrong. (Count)
system.cpu.branchPred.btb.mispredict::CallIndirect            0      0.00%      0.05% # Number of BTB mispredictions. No target found or target wrong. (Count)
system.cpu.branchPred.btb.mispredict::DirectCond      2876919     99.82%     99.87% # Number of BTB mispredictions. No target found or target wrong. (Count)
system.cpu.branchPred.btb.mispredict::DirectUncond         3732      0.13%    100.00% # Number of BTB mispredictions. No target found or target wrong. (Count)
system.cpu.branchPred.btb.mispredict::IndirectCond            0      0.00%    100.00% # Number of BTB mispredictions. No target found or target wrong. (Count)
system.cpu.branchPred.btb.mispredict::IndirectUncond            0      0.00%    100.00% # Number of BTB mispredictions. No target found or target wrong. (Count)
system.cpu.branchPred.btb.mispredict::total      2882034                       # Number of BTB mispredictions. No target found or target wrong. (Count)
system.cpu.branchPred.btb.power_state.pwrStateResidencyTicks::UNDEFINED 2832179300414                       # Cumulative time (in ticks) in various power states (Tick)
system.cpu.branchPred.indirectBranchPred.lookups       448195                       # Number of lookups (Count)
system.cpu.branchPred.indirectBranchPred.hits       331381                       # Number of hits of a tag (Count)
system.cpu.branchPred.indirectBranchPred.misses       116814                       # Number of misses (Count)
system.cpu.branchPred.indirectBranchPred.targetRecords         1796                       # Number of targets that where recorded/installed in the cache (Count)
system.cpu.branchPred.indirectBranchPred.indirectRecords       449991                       # Number of indirect branches/calls recorded in the indirect hist (Count)
system.cpu.branchPred.indirectBranchPred.speculativeOverflows            1                       # Number of times more than the allowed capacity for speculative branches/calls where in flight and destroy the path history (Count)
system.cpu.branchPred.ras.pushes              2991982                       # Number of times a PC was pushed onto the RAS (Count)
system.cpu.branchPred.ras.pops                2991977                       # Number of times a PC was poped from the RAS (Count)
system.cpu.branchPred.ras.squashes            1968848                       # Number of times the stack operation was squashed due to wrong speculation. (Count)
system.cpu.branchPred.ras.used                1023128                       # Number of times the RAS is the provider (Count)
system.cpu.branchPred.ras.correct             1022472                       # Number of times the RAS is the provider and the prediction is correct (Count)
system.cpu.branchPred.ras.incorrect               656                       # Number of times the RAS is the provider and the prediction is wrong (Count)
system.cpu.commit.commitSquashedInsts       235775821                       # The number of squashed insts skipped by commit (Count)
system.cpu.commit.commitNonSpecStalls           41430                       # The number of times commit has been forced to stall to communicate backwards (Count)
system.cpu.commit.branchMispredicts           6612167                       # The number of times a branch was mispredicted (Count)
system.cpu.commit.numCommittedDist::samples    178618307                       # Number of insts commited each cycle (Count)
system.cpu.commit.numCommittedDist::mean     2.361719                       # Number of insts commited each cycle (Count)
system.cpu.commit.numCommittedDist::stdev     2.988341                       # Number of insts commited each cycle (Count)
system.cpu.commit.numCommittedDist::underflows            0      0.00%      0.00% # Number of insts commited each cycle (Count)
system.cpu.commit.numCommittedDist::0        83927585     46.99%     46.99% # Number of insts commited each cycle (Count)
system.cpu.commit.numCommittedDist::1        17280872      9.67%     56.66% # Number of insts commited each cycle (Count)
system.cpu.commit.numCommittedDist::2        12096257      6.77%     63.43% # Number of insts commited each cycle (Count)
system.cpu.commit.numCommittedDist::3        18255928     10.22%     73.65% # Number of insts commited each cycle (Count)
system.cpu.commit.numCommittedDist::4         6595614      3.69%     77.35% # Number of insts commited each cycle (Count)
system.cpu.commit.numCommittedDist::5         4257921      2.38%     79.73% # Number of insts commited each cycle (Count)
system.cpu.commit.numCommittedDist::6         3932978      2.20%     81.93% # Number of insts commited each cycle (Count)
system.cpu.commit.numCommittedDist::7         3834097      2.15%     84.08% # Number of insts commited each cycle (Count)
system.cpu.commit.numCommittedDist::8        28437055     15.92%    100.00% # Number of insts commited each cycle (Count)
system.cpu.commit.numCommittedDist::overflows            0      0.00%    100.00% # Number of insts commited each cycle (Count)
system.cpu.commit.numCommittedDist::min_value            0                       # Number of insts commited each cycle (Count)
system.cpu.commit.numCommittedDist::max_value            8                       # Number of insts commited each cycle (Count)
system.cpu.commit.numCommittedDist::total    178618307                       # Number of insts commited each cycle (Count)
system.cpu.commit.amos                              0                       # Number of atomic instructions committed (Count)
system.cpu.commit.membars                       26986                       # Number of memory barriers committed (Count)
system.cpu.commit.functionCalls               1023133                       # Number of function calls committed. (Count)
system.cpu.commit.committedInstType_0::No_OpClass      1649750      0.39%      0.39% # Class of committed instruction (Count)
system.cpu.commit.committedInstType_0::IntAlu    303383339     71.92%     72.31% # Class of committed instruction (Count)
system.cpu.commit.committedInstType_0::IntMult       183137      0.04%     72.35% # Class of committed instruction (Count)
system.cpu.commit.committedInstType_0::IntDiv      1984256      0.47%     72.82% # Class of committed instruction (Count)
system.cpu.commit.committedInstType_0::FloatAdd     13200063      3.13%     75.95% # Class of committed instruction (Count)
system.cpu.commit.committedInstType_0::FloatCmp            0      0.00%     75.95% # Class of committed instruction (Count)
system.cpu.commit.committedInstType_0::FloatCvt         1632      0.00%     75.95% # Class of committed instruction (Count)
system.cpu.commit.committedInstType_0::FloatMult            0      0.00%     75.95% # Class of committed instruction (Count)
system.cpu.commit.committedInstType_0::FloatMultAcc            0      0.00%     75.95% # Class of committed instruction (Count)
system.cpu.commit.committedInstType_0::FloatDiv            0      0.00%     75.95% # Class of committed instruction (Count)
system.cpu.commit.committedInstType_0::FloatMisc            0      0.00%     75.95% # Class of committed instruction (Count)
system.cpu.commit.committedInstType_0::FloatSqrt            0      0.00%     75.95% # Class of committed instruction (Count)
system.cpu.commit.committedInstType_0::SimdAdd         6810      0.00%     75.95% # Class of committed instruction (Count)
system.cpu.commit.committedInstType_0::SimdAddAcc            0      0.00%     75.95% # Class of committed instruction (Count)
system.cpu.commit.committedInstType_0::SimdAlu      2431320      0.58%     76.53% # Class of committed instruction (Count)
system.cpu.commit.committedInstType_0::SimdCmp           18      0.00%     76.53% # Class of committed instruction (Count)
system.cpu.commit.committedInstType_0::SimdCvt       110250      0.03%     76.56% # Class of committed instruction (Count)
system.cpu.commit.committedInstType_0::SimdMisc       462758      0.11%     76.67% # Class of committed instruction (Count)
system.cpu.commit.committedInstType_0::SimdMult            0      0.00%     76.67% # Class of committed instruction (Count)
system.cpu.commit.committedInstType_0::SimdMultAcc            0      0.00%     76.67% # Class of committed instruction (Count)
system.cpu.commit.committedInstType_0::SimdMatMultAcc            0      0.00%     76.67% # Class of committed instruction (Count)
system.cpu.commit.committedInstType_0::SimdShift         2207      0.00%     76.67% # Class of committed instruction (Count)
system.cpu.commit.committedInstType_0::SimdShiftAcc            0      0.00%     76.67% # Class of committed instruction (Count)
system.cpu.commit.committedInstType_0::SimdDiv            0      0.00%     76.67% # Class of committed instruction (Count)
system.cpu.commit.committedInstType_0::SimdSqrt            0      0.00%     76.67% # Class of committed instruction (Count)
system.cpu.commit.committedInstType_0::SimdFloatAdd     11503368      2.73%     79.39% # Class of committed instruction (Count)
system.cpu.commit.committedInstType_0::SimdFloatAlu            0      0.00%     79.39% # Class of committed instruction (Count)
system.cpu.commit.committedInstType_0::SimdFloatCmp       767958      0.18%     79.58% # Class of committed instruction (Count)
system.cpu.commit.committedInstType_0::SimdFloatCvt      4939180      1.17%     80.75% # Class of committed instruction (Count)
system.cpu.commit.committedInstType_0::SimdFloatDiv        96004      0.02%     80.77% # Class of committed instruction (Count)
system.cpu.commit.committedInstType_0::SimdFloatMisc            0      0.00%     80.77% # Class of committed instruction (Count)
system.cpu.commit.committedInstType_0::SimdFloatMult      5515326      1.31%     82.08% # Class of committed instruction (Count)
system.cpu.commit.committedInstType_0::SimdFloatMultAcc            0      0.00%     82.08% # Class of committed instruction (Count)
system.cpu.commit.committedInstType_0::SimdFloatMatMultAcc            0      0.00%     82.08% # Class of committed instruction (Count)
system.cpu.commit.committedInstType_0::SimdFloatSqrt       527488      0.13%     82.20% # Class of committed instruction (Count)
system.cpu.commit.committedInstType_0::SimdReduceAdd            0      0.00%     82.20% # Class of committed instruction (Count)
system.cpu.commit.committedInstType_0::SimdReduceAlu            0      0.00%     82.20% # Class of committed instruction (Count)
system.cpu.commit.committedInstType_0::SimdReduceCmp            0      0.00%     82.20% # Class of committed instruction (Count)
system.cpu.commit.committedInstType_0::SimdFloatReduceAdd            0      0.00%     82.20% # Class of committed instruction (Count)
system.cpu.commit.committedInstType_0::SimdFloatReduceCmp            0      0.00%     82.20% # Class of committed instruction (Count)
system.cpu.commit.committedInstType_0::SimdAes            0      0.00%     82.20% # Class of committed instruction (Count)
system.cpu.commit.committedInstType_0::SimdAesMix            0      0.00%     82.20% # Class of committed instruction (Count)
system.cpu.commit.committedInstType_0::SimdSha1Hash            0      0.00%     82.20% # Class of committed instruction (Count)
system.cpu.commit.committedInstType_0::SimdSha1Hash2            0      0.00%     82.20% # Class of committed instruction (Count)
system.cpu.commit.committedInstType_0::SimdSha256Hash            0      0.00%     82.20% # Class of committed instruction (Count)
system.cpu.commit.committedInstType_0::SimdSha256Hash2            0      0.00%     82.20% # Class of committed instruction (Count)
system.cpu.commit.committedInstType_0::SimdShaSigma2            0      0.00%     82.20% # Class of committed instruction (Count)
system.cpu.commit.committedInstType_0::SimdShaSigma3            0      0.00%     82.20% # Class of committed instruction (Count)
system.cpu.commit.committedInstType_0::SimdPredAlu            0      0.00%     82.20% # Class of committed instruction (Count)
system.cpu.commit.committedInstType_0::Matrix            0      0.00%     82.20% # Class of committed instruction (Count)
system.cpu.commit.committedInstType_0::MatrixMov            0      0.00%     82.20% # Class of committed instruction (Count)
system.cpu.commit.committedInstType_0::MatrixOP            0      0.00%     82.20% # Class of committed instruction (Count)
system.cpu.commit.committedInstType_0::MemRead     43400556     10.29%     92.49% # Class of committed instruction (Count)
system.cpu.commit.committedInstType_0::MemWrite     12915437      3.06%     95.55% # Class of committed instruction (Count)
system.cpu.commit.committedInstType_0::FloatMemRead     18118785      4.30%     99.85% # Class of committed instruction (Count)
system.cpu.commit.committedInstType_0::FloatMemWrite       646576      0.15%    100.00% # Class of committed instruction (Count)
system.cpu.commit.committedInstType_0::IprAccess            0      0.00%    100.00% # Class of committed instruction (Count)
system.cpu.commit.committedInstType_0::InstPrefetch            0      0.00%    100.00% # Class of committed instruction (Count)
system.cpu.commit.committedInstType_0::SimdUnitStrideLoad            0      0.00%    100.00% # Class of committed instruction (Count)
system.cpu.commit.committedInstType_0::SimdUnitStrideStore            0      0.00%    100.00% # Class of committed instruction (Count)
system.cpu.commit.committedInstType_0::SimdUnitStrideMaskLoad            0      0.00%    100.00% # Class of committed instruction (Count)
system.cpu.commit.committedInstType_0::SimdUnitStrideMaskStore            0      0.00%    100.00% # Class of committed instruction (Count)
system.cpu.commit.committedInstType_0::SimdStridedLoad            0      0.00%    100.00% # Class of committed instruction (Count)
system.cpu.commit.committedInstType_0::SimdStridedStore            0      0.00%    100.00% # Class of committed instruction (Count)
system.cpu.commit.committedInstType_0::SimdIndexedLoad            0      0.00%    100.00% # Class of committed instruction (Count)
system.cpu.commit.committedInstType_0::SimdIndexedStore            0      0.00%    100.00% # Class of committed instruction (Count)
system.cpu.commit.committedInstType_0::SimdWholeRegisterLoad            0      0.00%    100.00% # Class of committed instruction (Count)
system.cpu.commit.committedInstType_0::SimdWholeRegisterStore            0      0.00%    100.00% # Class of committed instruction (Count)
system.cpu.commit.committedInstType_0::SimdUnitStrideFaultOnlyFirstLoad            0      0.00%    100.00% # Class of committed instruction (Count)
system.cpu.commit.committedInstType_0::SimdUnitStrideSegmentedLoad            0      0.00%    100.00% # Class of committed instruction (Count)
system.cpu.commit.committedInstType_0::SimdUnitStrideSegmentedStore            0      0.00%    100.00% # Class of committed instruction (Count)
system.cpu.commit.committedInstType_0::SimdExt            0      0.00%    100.00% # Class of committed instruction (Count)
system.cpu.commit.committedInstType_0::SimdFloatExt            0      0.00%    100.00% # Class of committed instruction (Count)
system.cpu.commit.committedInstType_0::SimdConfig            0      0.00%    100.00% # Class of committed instruction (Count)
system.cpu.commit.committedInstType_0::total    421846218                       # Class of committed instruction (Count)
system.cpu.commit.commitEligibleSamples      28437055                       # number cycles where commit BW limit reached (Cycle)
system.cpu.commitStats0.numInsts            233256945                       # Number of instructions committed (thread level) (Count)
system.cpu.commitStats0.numOps              421846218                       # Number of ops (including micro ops) committed (thread level) (Count)
system.cpu.commitStats0.numInstsNotNOP      233256945                       # Number of instructions committed excluding NOPs or prefetches (Count)
system.cpu.commitStats0.numOpsNotNOP        421846218                       # Number of Ops (including micro ops) Simulated (Count)
system.cpu.commitStats0.cpi                  0.910664                       # CPI: cycles per instruction (thread level) ((Cycle/Count))
system.cpu.commitStats0.ipc                  1.098100                       # IPC: instructions per cycle (thread level) ((Count/Cycle))
system.cpu.commitStats0.numMemRefs           75081354                       # Number of memory references committed (Count)
system.cpu.commitStats0.numFpInsts           66563443                       # Number of float instructions (Count)
system.cpu.commitStats0.numIntInsts         372199225                       # Number of integer instructions (Count)
system.cpu.commitStats0.numLoadInsts         61519341                       # Number of load instructions (Count)
system.cpu.commitStats0.numStoreInsts        13562013                       # Number of store instructions (Count)
system.cpu.commitStats0.numVecInsts                 0                       # Number of vector instructions (Count)
system.cpu.commitStats0.committedInstType::No_OpClass      1649750      0.39%      0.39% # Class of committed instruction. (Count)
system.cpu.commitStats0.committedInstType::IntAlu    303383339     71.92%     72.31% # Class of committed instruction. (Count)
system.cpu.commitStats0.committedInstType::IntMult       183137      0.04%     72.35% # Class of committed instruction. (Count)
system.cpu.commitStats0.committedInstType::IntDiv      1984256      0.47%     72.82% # Class of committed instruction. (Count)
system.cpu.commitStats0.committedInstType::FloatAdd     13200063      3.13%     75.95% # Class of committed instruction. (Count)
system.cpu.commitStats0.committedInstType::FloatCmp            0      0.00%     75.95% # Class of committed instruction. (Count)
system.cpu.commitStats0.committedInstType::FloatCvt         1632      0.00%     75.95% # Class of committed instruction. (Count)
system.cpu.commitStats0.committedInstType::FloatMult            0      0.00%     75.95% # Class of committed instruction. (Count)
system.cpu.commitStats0.committedInstType::FloatMultAcc            0      0.00%     75.95% # Class of committed instruction. (Count)
system.cpu.commitStats0.committedInstType::FloatDiv            0      0.00%     75.95% # Class of committed instruction. (Count)
system.cpu.commitStats0.committedInstType::FloatMisc            0      0.00%     75.95% # Class of committed instruction. (Count)
system.cpu.commitStats0.committedInstType::FloatSqrt            0      0.00%     75.95% # Class of committed instruction. (Count)
system.cpu.commitStats0.committedInstType::SimdAdd         6810      0.00%     75.95% # Class of committed instruction. (Count)
system.cpu.commitStats0.committedInstType::SimdAddAcc            0      0.00%     75.95% # Class of committed instruction. (Count)
system.cpu.commitStats0.committedInstType::SimdAlu      2431320      0.58%     76.53% # Class of committed instruction. (Count)
system.cpu.commitStats0.committedInstType::SimdCmp           18      0.00%     76.53% # Class of committed instruction. (Count)
system.cpu.commitStats0.committedInstType::SimdCvt       110250      0.03%     76.56% # Class of committed instruction. (Count)
system.cpu.commitStats0.committedInstType::SimdMisc       462758      0.11%     76.67% # Class of committed instruction. (Count)
system.cpu.commitStats0.committedInstType::SimdMult            0      0.00%     76.67% # Class of committed instruction. (Count)
system.cpu.commitStats0.committedInstType::SimdMultAcc            0      0.00%     76.67% # Class of committed instruction. (Count)
system.cpu.commitStats0.committedInstType::SimdMatMultAcc            0      0.00%     76.67% # Class of committed instruction. (Count)
system.cpu.commitStats0.committedInstType::SimdShift         2207      0.00%     76.67% # Class of committed instruction. (Count)
system.cpu.commitStats0.committedInstType::SimdShiftAcc            0      0.00%     76.67% # Class of committed instruction. (Count)
system.cpu.commitStats0.committedInstType::SimdDiv            0      0.00%     76.67% # Class of committed instruction. (Count)
system.cpu.commitStats0.committedInstType::SimdSqrt            0      0.00%     76.67% # Class of committed instruction. (Count)
system.cpu.commitStats0.committedInstType::SimdFloatAdd     11503368      2.73%     79.39% # Class of committed instruction. (Count)
system.cpu.commitStats0.committedInstType::SimdFloatAlu            0      0.00%     79.39% # Class of committed instruction. (Count)
system.cpu.commitStats0.committedInstType::SimdFloatCmp       767958      0.18%     79.58% # Class of committed instruction. (Count)
system.cpu.commitStats0.committedInstType::SimdFloatCvt      4939180      1.17%     80.75% # Class of committed instruction. (Count)
system.cpu.commitStats0.committedInstType::SimdFloatDiv        96004      0.02%     80.77% # Class of committed instruction. (Count)
system.cpu.commitStats0.committedInstType::SimdFloatMisc            0      0.00%     80.77% # Class of committed instruction. (Count)
system.cpu.commitStats0.committedInstType::SimdFloatMult      5515326      1.31%     82.08% # Class of committed instruction. (Count)
system.cpu.commitStats0.committedInstType::SimdFloatMultAcc            0      0.00%     82.08% # Class of committed instruction. (Count)
system.cpu.commitStats0.committedInstType::SimdFloatMatMultAcc            0      0.00%     82.08% # Class of committed instruction. (Count)
system.cpu.commitStats0.committedInstType::SimdFloatSqrt       527488      0.13%     82.20% # Class of committed instruction. (Count)
system.cpu.commitStats0.committedInstType::SimdReduceAdd            0      0.00%     82.20% # Class of committed instruction. (Count)
system.cpu.commitStats0.committedInstType::SimdReduceAlu            0      0.00%     82.20% # Class of committed instruction. (Count)
system.cpu.commitStats0.committedInstType::SimdReduceCmp            0      0.00%     82.20% # Class of committed instruction. (Count)
system.cpu.commitStats0.committedInstType::SimdFloatReduceAdd            0      0.00%     82.20% # Class of committed instruction. (Count)
system.cpu.commitStats0.committedInstType::SimdFloatReduceCmp            0      0.00%     82.20% # Class of committed instruction. (Count)
system.cpu.commitStats0.committedInstType::SimdAes            0      0.00%     82.20% # Class of committed instruction. (Count)
system.cpu.commitStats0.committedInstType::SimdAesMix            0      0.00%     82.20% # Class of committed instruction. (Count)
system.cpu.commitStats0.committedInstType::SimdSha1Hash            0      0.00%     82.20% # Class of committed instruction. (Count)
system.cpu.commitStats0.committedInstType::SimdSha1Hash2            0      0.00%     82.20% # Class of committed instruction. (Count)
system.cpu.commitStats0.committedInstType::SimdSha256Hash            0      0.00%     82.20% # Class of committed instruction. (Count)
system.cpu.commitStats0.committedInstType::SimdSha256Hash2            0      0.00%     82.20% # Class of committed instruction. (Count)
system.cpu.commitStats0.committedInstType::SimdShaSigma2            0      0.00%     82.20% # Class of committed instruction. (Count)
system.cpu.commitStats0.committedInstType::SimdShaSigma3            0      0.00%     82.20% # Class of committed instruction. (Count)
system.cpu.commitStats0.committedInstType::SimdPredAlu            0      0.00%     82.20% # Class of committed instruction. (Count)
system.cpu.commitStats0.committedInstType::Matrix            0      0.00%     82.20% # Class of committed instruction. (Count)
system.cpu.commitStats0.committedInstType::MatrixMov            0      0.00%     82.20% # Class of committed instruction. (Count)
system.cpu.commitStats0.committedInstType::MatrixOP            0      0.00%     82.20% # Class of committed instruction. (Count)
system.cpu.commitStats0.committedInstType::MemRead     43400556     10.29%     92.49% # Class of committed instruction. (Count)
system.cpu.commitStats0.committedInstType::MemWrite     12915437      3.06%     95.55% # Class of committed instruction. (Count)
system.cpu.commitStats0.committedInstType::FloatMemRead     18118785      4.30%     99.85% # Class of committed instruction. (Count)
system.cpu.commitStats0.committedInstType::FloatMemWrite       646576      0.15%    100.00% # Class of committed instruction. (Count)
system.cpu.commitStats0.committedInstType::IprAccess            0      0.00%    100.00% # Class of committed instruction. (Count)
system.cpu.commitStats0.committedInstType::InstPrefetch            0      0.00%    100.00% # Class of committed instruction. (Count)
system.cpu.commitStats0.committedInstType::SimdUnitStrideLoad            0      0.00%    100.00% # Class of committed instruction. (Count)
system.cpu.commitStats0.committedInstType::SimdUnitStrideStore            0      0.00%    100.00% # Class of committed instruction. (Count)
system.cpu.commitStats0.committedInstType::SimdUnitStrideMaskLoad            0      0.00%    100.00% # Class of committed instruction. (Count)
system.cpu.commitStats0.committedInstType::SimdUnitStrideMaskStore            0      0.00%    100.00% # Class of committed instruction. (Count)
system.cpu.commitStats0.committedInstType::SimdStridedLoad            0      0.00%    100.00% # Class of committed instruction. (Count)
system.cpu.commitStats0.committedInstType::SimdStridedStore            0      0.00%    100.00% # Class of committed instruction. (Count)
system.cpu.commitStats0.committedInstType::SimdIndexedLoad            0      0.00%    100.00% # Class of committed instruction. (Count)
system.cpu.commitStats0.committedInstType::SimdIndexedStore            0      0.00%    100.00% # Class of committed instruction. (Count)
system.cpu.commitStats0.committedInstType::SimdWholeRegisterLoad            0      0.00%    100.00% # Class of committed instruction. (Count)
system.cpu.commitStats0.committedInstType::SimdWholeRegisterStore            0      0.00%    100.00% # Class of committed instruction. (Count)
system.cpu.commitStats0.committedInstType::SimdUnitStrideFaultOnlyFirstLoad            0      0.00%    100.00% # Class of committed instruction. (Count)
system.cpu.commitStats0.committedInstType::SimdUnitStrideSegmentedLoad            0      0.00%    100.00% # Class of committed instruction. (Count)
system.cpu.commitStats0.committedInstType::SimdUnitStrideSegmentedStore            0      0.00%    100.00% # Class of committed instruction. (Count)
system.cpu.commitStats0.committedInstType::SimdExt            0      0.00%    100.00% # Class of committed instruction. (Count)
system.cpu.commitStats0.committedInstType::SimdFloatExt            0      0.00%    100.00% # Class of committed instruction. (Count)
system.cpu.commitStats0.committedInstType::SimdConfig            0      0.00%    100.00% # Class of committed instruction. (Count)
system.cpu.commitStats0.committedInstType::total    421846218                       # Class of committed instruction. (Count)
system.cpu.commitStats0.committedControl::IsControl     46037954                       # Class of control type instructions committed (Count)
system.cpu.commitStats0.committedControl::IsDirectControl     44716682                       # Class of control type instructions committed (Count)
system.cpu.commitStats0.committedControl::IsIndirectControl      1320919                       # Class of control type instructions committed (Count)
system.cpu.commitStats0.committedControl::IsCondControl     39052125                       # Class of control type instructions committed (Count)
system.cpu.commitStats0.committedControl::IsUncondControl      6985476                       # Class of control type instructions committed (Count)
system.cpu.commitStats0.committedControl::IsCall      1023133                       # Class of control type instructions committed (Count)
system.cpu.commitStats0.committedControl::IsReturn      1023128                       # Class of control type instructions committed (Count)
system.cpu.decode.idleCycles                 52561919                       # Number of cycles decode is idle (Cycle)
system.cpu.decode.blockedCycles              41856957                       # Number of cycles decode is blocked (Cycle)
system.cpu.decode.runCycles                  95113745                       # Number of cycles decode is running (Cycle)
system.cpu.decode.unblockCycles              16015265                       # Number of cycles decode is unblocking (Cycle)
system.cpu.decode.squashCycles                6633004                       # Number of cycles decode is squashing (Cycle)
system.cpu.decode.branchResolved             45699693                       # Number of times decode resolved a branch (Count)
system.cpu.decode.branchMispred                  9141                       # Number of times decode detected a branch misprediction (Count)
system.cpu.decode.decodedInsts              780715120                       # Number of instructions handled by decode (Count)
system.cpu.decode.squashedInsts                 42835                       # Number of squashed instructions handled by decode (Count)
system.cpu.executeStats0.numInsts           571238432                       # Number of executed instructions (Count)
system.cpu.executeStats0.numNop                     0                       # Number of nop insts executed (Count)
system.cpu.executeStats0.numBranches         57154484                       # Number of branches executed (Count)
system.cpu.executeStats0.numLoadInsts        81416564                       # Number of load instructions executed (Count)
system.cpu.executeStats0.numStoreInsts       18073876                       # Number of stores executed (Count)
system.cpu.executeStats0.instRate            2.689209                       # Inst execution rate ((Count/Cycle))
system.cpu.executeStats0.numCCRegReads      299236631                       # Number of times the CC registers were read (Count)
system.cpu.executeStats0.numCCRegWrites     190850597                       # Number of times the CC registers were written (Count)
system.cpu.executeStats0.numFpRegReads      110027385                       # Number of times the floating registers were read (Count)
system.cpu.executeStats0.numFpRegWrites      80598304                       # Number of times the floating registers were written (Count)
system.cpu.executeStats0.numIntRegReads     570824504                       # Number of times the integer registers were read (Count)
system.cpu.executeStats0.numIntRegWrites    363812189                       # Number of times the integer registers were written (Count)
system.cpu.executeStats0.numMemRefs          99490440                       # Number of memory refs (Count)
system.cpu.executeStats0.numMiscRegReads    223190966                       # Number of times the Misc registers were read (Count)
system.cpu.executeStats0.numMiscRegWrites          918                       # Number of times the Misc registers were written (Count)
system.cpu.executeStats0.numVecAluAccesses            0                       # Number of vector alu accesses (Count)
system.cpu.executeStats0.numDiscardedOps            0                       # Number of ops (including micro ops) which were discarded before commit (Count)
system.cpu.fetch.predictedBranches           51940692                       # Number of branches that fetch has predicted taken (Count)
system.cpu.fetch.cycles                     165992152                       # Number of cycles fetch has run and was not squashing or blocked (Cycle)
system.cpu.fetch.squashCycles                13283980                       # Number of cycles fetch has spent squashing (Cycle)
system.cpu.fetch.miscStallCycles                  329                       # Number of cycles fetch has spent waiting on interrupts, or bad addresses, or out of MSHRs (Cycle)
system.cpu.fetch.pendingTrapStallCycles          3159                       # Number of stall cycles due to pending traps (Cycle)
system.cpu.fetch.cacheLines                  73055745                       # Number of cache lines fetched (Count)
[...]
system.mem_ctrl.dram.bwRead::total          335587696                       # Total read bandwidth from this memory ((Byte/Second))
system.mem_ctrl.dram.bwInstRead::cpu.inst    172443048                       # Instruction read bandwidth from this memory ((Byte/Second))
system.mem_ctrl.dram.bwInstRead::total      172443048                       # Instruction read bandwidth from this memory ((Byte/Second))
system.mem_ctrl.dram.bwWrite::writebacks     44736356                       # Write bandwidth from this memory ((Byte/Second))
system.mem_ctrl.dram.bwWrite::total          44736356                       # Write bandwidth from this memory ((Byte/Second))
system.mem_ctrl.dram.bwTotal::writebacks     44736356                       # Total bandwidth to/from this memory ((Byte/Second))
system.mem_ctrl.dram.bwTotal::cpu.inst      172443048                       # Total bandwidth to/from this memory ((Byte/Second))
system.mem_ctrl.dram.bwTotal::cpu.data      163144648                       # Total bandwidth to/from this memory ((Byte/Second))
system.mem_ctrl.dram.bwTotal::total         380324053                       # Total bandwidth to/from this memory ((Byte/Second))
system.mem_ctrl.dram.readBursts                  4781                       # Number of DRAM read bursts (Count)
system.mem_ctrl.dram.writeBursts                  498                       # Number of DRAM write bursts (Count)
system.mem_ctrl.dram.perBankRdBursts::0           367                       # Per bank write bursts (Count)
system.mem_ctrl.dram.perBankRdBursts::1           186                       # Per bank write bursts (Count)
system.mem_ctrl.dram.perBankRdBursts::2           160                       # Per bank write bursts (Count)
system.mem_ctrl.dram.perBankRdBursts::3           432                       # Per bank write bursts (Count)
system.mem_ctrl.dram.perBankRdBursts::4           464                       # Per bank write bursts (Count)
system.mem_ctrl.dram.perBankRdBursts::5           148                       # Per bank write bursts (Count)
system.mem_ctrl.dram.perBankRdBursts::6           309                       # Per bank write bursts (Count)
system.mem_ctrl.dram.perBankRdBursts::7           110                       # Per bank write bursts (Count)
system.mem_ctrl.dram.perBankRdBursts::8           192                       # Per bank write bursts (Count)
system.mem_ctrl.dram.perBankRdBursts::9           273                       # Per bank write bursts (Count)
system.mem_ctrl.dram.perBankRdBursts::10          188                       # Per bank write bursts (Count)
system.mem_ctrl.dram.perBankRdBursts::11          540                       # Per bank write bursts (Count)
system.mem_ctrl.dram.perBankRdBursts::12          438                       # Per bank write bursts (Count)
system.mem_ctrl.dram.perBankRdBursts::13          170                       # Per bank write bursts (Count)
system.mem_ctrl.dram.perBankRdBursts::14          400                       # Per bank write bursts (Count)
system.mem_ctrl.dram.perBankRdBursts::15          404                       # Per bank write bursts (Count)
system.mem_ctrl.dram.perBankWrBursts::0            46                       # Per bank write bursts (Count)
system.mem_ctrl.dram.perBankWrBursts::1            39                       # Per bank write bursts (Count)
system.mem_ctrl.dram.perBankWrBursts::2            22                       # Per bank write bursts (Count)
system.mem_ctrl.dram.perBankWrBursts::3           211                       # Per bank write bursts (Count)
system.mem_ctrl.dram.perBankWrBursts::4             5                       # Per bank write bursts (Count)
system.mem_ctrl.dram.perBankWrBursts::5            31                       # Per bank write bursts (Count)
system.mem_ctrl.dram.perBankWrBursts::6             2                       # Per bank write bursts (Count)
system.mem_ctrl.dram.perBankWrBursts::7             1                       # Per bank write bursts (Count)
system.mem_ctrl.dram.perBankWrBursts::8             7                       # Per bank write bursts (Count)
system.mem_ctrl.dram.perBankWrBursts::9             0                       # Per bank write bursts (Count)
system.mem_ctrl.dram.perBankWrBursts::10           31                       # Per bank write bursts (Count)
system.mem_ctrl.dram.perBankWrBursts::11           14                       # Per bank write bursts (Count)
system.mem_ctrl.dram.perBankWrBursts::12           39                       # Per bank write bursts (Count)
system.mem_ctrl.dram.perBankWrBursts::13           18                       # Per bank write bursts (Count)
system.mem_ctrl.dram.perBankWrBursts::14            0                       # Per bank write bursts (Count)
system.mem_ctrl.dram.perBankWrBursts::15           32                       # Per bank write bursts (Count)
system.mem_ctrl.dram.totQLat                 69163077                       # Total ticks spent queuing (Tick)
system.mem_ctrl.dram.totBusLat               23905000                       # Total ticks spent in databus transfers (Tick)
system.mem_ctrl.dram.totMemAccLat           158806827                       # Total ticks spent from burst creation until serviced by the DRAM (Tick)
system.mem_ctrl.dram.avgQLat                 14466.24                       # Average queueing delay per DRAM burst ((Tick/Count))
system.mem_ctrl.dram.avgBusLat                5000.00                       # Average bus latency per DRAM burst ((Tick/Count))
system.mem_ctrl.dram.avgMemAccLat            33216.24                       # Average memory access latency per DRAM burst ((Tick/Count))
system.mem_ctrl.dram.readRowHits                 2701                       # Number of row buffer hits during reads (Count)
system.mem_ctrl.dram.writeRowHits                 389                       # Number of row buffer hits during writes (Count)
system.mem_ctrl.dram.readRowHitRate             56.49                       # Row buffer hit rate for reads (Ratio)
system.mem_ctrl.dram.writeRowHitRate            78.11                       # Row buffer hit rate for writes (Ratio)
system.mem_ctrl.dram.bytesPerActivate::samples         2194                       # Bytes accessed per row activation (Byte)
system.mem_ctrl.dram.bytesPerActivate::mean   154.486782                       # Bytes accessed per row activation (Byte)
system.mem_ctrl.dram.bytesPerActivate::gmean   116.256576                       # Bytes accessed per row activation (Byte)
system.mem_ctrl.dram.bytesPerActivate::stdev   151.361705                       # Bytes accessed per row activation (Byte)
system.mem_ctrl.dram.bytesPerActivate::0-127         1046     47.68%     47.68% # Bytes accessed per row activation (Byte)
system.mem_ctrl.dram.bytesPerActivate::128-255          745     33.96%     81.63% # Bytes accessed per row activation (Byte)
system.mem_ctrl.dram.bytesPerActivate::256-383          241     10.98%     92.62% # Bytes accessed per row activation (Byte)
system.mem_ctrl.dram.bytesPerActivate::384-511           68      3.10%     95.72% # Bytes accessed per row activation (Byte)
system.mem_ctrl.dram.bytesPerActivate::512-639           41      1.87%     97.58% # Bytes accessed per row activation (Byte)
system.mem_ctrl.dram.bytesPerActivate::640-767           13      0.59%     98.18% # Bytes accessed per row activation (Byte)
system.mem_ctrl.dram.bytesPerActivate::768-895           18      0.82%     99.00% # Bytes accessed per row activation (Byte)
system.mem_ctrl.dram.bytesPerActivate::896-1023           11      0.50%     99.50% # Bytes accessed per row activation (Byte)
system.mem_ctrl.dram.bytesPerActivate::1024-1151           11      0.50%    100.00% # Bytes accessed per row activation (Byte)
system.mem_ctrl.dram.bytesPerActivate::total         2194                       # Bytes accessed per row activation (Byte)
system.mem_ctrl.dram.dramBytesRead             305984                       # Total bytes read (Byte)
system.mem_ctrl.dram.dramBytesWritten           31872                       # Total bytes written (Byte)
system.mem_ctrl.dram.avgRdBW               310.878662                       # Average DRAM read bandwidth in MiBytes/s ((Byte/Second))
system.mem_ctrl.dram.avgWrBW                32.381839                       # Average DRAM write bandwidth in MiBytes/s ((Byte/Second))
system.mem_ctrl.dram.peakBW                  12800.00                       # Theoretical peak bandwidth in MiByte/s ((Byte/Second))
system.mem_ctrl.dram.busUtil                     2.68                       # Data bus utilization in percentage (Ratio)
system.mem_ctrl.dram.busUtilRead                 2.43                       # Data bus utilization in percentage for reads (Ratio)
system.mem_ctrl.dram.busUtilWrite                0.25                       # Data bus utilization in percentage for writes (Ratio)
system.mem_ctrl.dram.pageHitRate                58.53                       # Row buffer hit rate, read and write combined (Ratio)
system.mem_ctrl.dram.power_state.pwrStateResidencyTicks::UNDEFINED    984255393                       # Cumulative time (in ticks) in various power states (Tick)
system.mem_ctrl.dram.rank0.actEnergy          7839720                       # Energy for activate commands per rank (pJ) (Joule)
system.mem_ctrl.dram.rank0.preEnergy          4166910                       # Energy for precharge commands per rank (pJ) (Joule)
system.mem_ctrl.dram.rank0.readEnergy        15536640                       # Energy for read commands per rank (pJ) (Joule)
system.mem_ctrl.dram.rank0.writeEnergy        1863540                       # Energy for write commands per rank (pJ) (Joule)
system.mem_ctrl.dram.rank0.refreshEnergy 78059280.000000                       # Energy for refresh commands per rank (pJ) (Joule)
system.mem_ctrl.dram.rank0.actBackEnergy    408316650                       # Energy for active background per rank (pJ) (Joule)
system.mem_ctrl.dram.rank0.preBackEnergy     34108320                       # Energy for precharge background per rank (pJ) (Joule)
system.mem_ctrl.dram.rank0.actPowerDownEnergy            0                       # Energy for active power-down per rank (pJ) (Joule)
system.mem_ctrl.dram.rank0.prePowerDownEnergy            0                       # Energy for precharge power-down per rank (pJ) (Joule)
system.mem_ctrl.dram.rank0.selfRefreshEnergy            0                       # Energy for self refresh per rank (pJ) (Joule)
system.mem_ctrl.dram.rank0.totalEnergy      549891060                       # Total energy per rank (pJ) (Joule)
system.mem_ctrl.dram.rank0.averagePower    558.687373                       # Core power per rank (mW) (Watt)
system.mem_ctrl.dram.rank0.totalIdleTime            0                       # Total Idle time Per DRAM Rank (Tick)
system.mem_ctrl.dram.rank0.pwrStateTime::IDLE     85064644                       # Time in different power states (Tick)
system.mem_ctrl.dram.rank0.pwrStateTime::REF     33020000                       # Time in different power states (Tick)
system.mem_ctrl.dram.rank0.pwrStateTime::SREF            0                       # Time in different power states (Tick)
system.mem_ctrl.dram.rank0.pwrStateTime::PRE_PDN            0                       # Time in different power states (Tick)
system.mem_ctrl.dram.rank0.pwrStateTime::ACT    866170749                       # Time in different power states (Tick)
system.mem_ctrl.dram.rank0.pwrStateTime::ACT_PDN            0                       # Time in different power states (Tick)
system.mem_ctrl.dram.rank1.actEnergy          7789740                       # Energy for activate commands per rank (pJ) (Joule)
system.mem_ctrl.dram.rank1.preEnergy          4159320                       # Energy for precharge commands per rank (pJ) (Joule)
system.mem_ctrl.dram.rank1.readEnergy        18599700                       # Energy for read commands per rank (pJ) (Joule)
system.mem_ctrl.dram.rank1.writeEnergy         736020                       # Energy for write commands per rank (pJ) (Joule)
system.mem_ctrl.dram.rank1.refreshEnergy 78059280.000000                       # Energy for refresh commands per rank (pJ) (Joule)
system.mem_ctrl.dram.rank1.actBackEnergy    420228510                       # Energy for active background per rank (pJ) (Joule)
system.mem_ctrl.dram.rank1.preBackEnergy     24077280                       # Energy for precharge background per rank (pJ) (Joule)
system.mem_ctrl.dram.rank1.actPowerDownEnergy            0                       # Energy for active power-down per rank (pJ) (Joule)
system.mem_ctrl.dram.rank1.prePowerDownEnergy            0                       # Energy for precharge power-down per rank (pJ) (Joule)
system.mem_ctrl.dram.rank1.selfRefreshEnergy            0                       # Energy for self refresh per rank (pJ) (Joule)
system.mem_ctrl.dram.rank1.totalEnergy      553649850                       # Total energy per rank (pJ) (Joule)
system.mem_ctrl.dram.rank1.averagePower    562.506290                       # Core power per rank (mW) (Watt)
system.mem_ctrl.dram.rank1.totalIdleTime            0                       # Total Idle time Per DRAM Rank (Tick)
system.mem_ctrl.dram.rank1.pwrStateTime::IDLE     58997170                       # Time in different power states (Tick)
system.mem_ctrl.dram.rank1.pwrStateTime::REF     33020000                       # Time in different power states (Tick)
system.mem_ctrl.dram.rank1.pwrStateTime::SREF            0                       # Time in different power states (Tick)
system.mem_ctrl.dram.rank1.pwrStateTime::PRE_PDN            0                       # Time in different power states (Tick)
system.mem_ctrl.dram.rank1.pwrStateTime::ACT    892238223                       # Time in different power states (Tick)
system.mem_ctrl.dram.rank1.pwrStateTime::ACT_PDN            0                       # Time in different power states (Tick)
system.mem_ctrl.power_state.pwrStateResidencyTicks::UNDEFINED    984255393                       # Cumulative time (in ticks) in various power states (Tick)
system.membus.transDist::ReadResp                4898                       # Transaction distribution (Count)
system.membus.transDist::WritebackDirty           688                       # Transaction distribution (Count)
system.membus.transDist::CleanEvict              4473                       # Transaction distribution (Count)
system.membus.transDist::UpgradeReq                 1                       # Transaction distribution (Count)
system.membus.transDist::ReadExReq                264                       # Transaction distribution (Count)
system.membus.transDist::ReadExResp               264                       # Transaction distribution (Count)
system.membus.transDist::ReadSharedReq           4898                       # Transaction distribution (Count)
system.membus.pktCount_system.cpu.l1d.mem_side_port::system.mem_ctrl.port         7528                       # Packet count per connected requestor and responder (Count)
system.membus.pktCount_system.cpu.l1d.mem_side_port::total         7528                       # Packet count per connected requestor and responder (Count)
system.membus.pktCount_system.cpu.l1i.mem_side_port::system.mem_ctrl.port         7957                       # Packet count per connected requestor and responder (Count)
system.membus.pktCount_system.cpu.l1i.mem_side_port::total         7957                       # Packet count per connected requestor and responder (Count)
system.membus.pktCount::total                   15485                       # Packet count per connected requestor and responder (Count)
system.membus.pktSize_system.cpu.l1d.mem_side_port::system.mem_ctrl.port       204608                       # Cumulative packet size per connected requestor and responder (Byte)
system.membus.pktSize_system.cpu.l1d.mem_side_port::total       204608                       # Cumulative packet size per connected requestor and responder (Byte)
system.membus.pktSize_system.cpu.l1i.mem_side_port::system.mem_ctrl.port       169728                       # Cumulative packet size per connected requestor and responder (Byte)
system.membus.pktSize_system.cpu.l1i.mem_side_port::total       169728                       # Cumulative packet size per connected requestor and responder (Byte)
system.membus.pktSize::total                   374336                       # Cumulative packet size per connected requestor and responder (Byte)
system.membus.snoops                                1                       # Total snoops (Count)
system.membus.snoopTraffic                         64                       # Total snoop traffic (Byte)
system.membus.snoopFanout::samples               5163                       # Request fanout histogram (Count)
system.membus.snoopFanout::mean              0.003293                       # Request fanout histogram (Count)
system.membus.snoopFanout::stdev             0.057293                       # Request fanout histogram (Count)
system.membus.snoopFanout::underflows               0      0.00%      0.00% # Request fanout histogram (Count)
system.membus.snoopFanout::0                     5146     99.67%     99.67% # Request fanout histogram (Count)
system.membus.snoopFanout::1                       17      0.33%    100.00% # Request fanout histogram (Count)
system.membus.snoopFanout::2                        0      0.00%    100.00% # Request fanout histogram (Count)
system.membus.snoopFanout::overflows                0      0.00%    100.00% # Request fanout histogram (Count)
system.membus.snoopFanout::min_value                0                       # Request fanout histogram (Count)
system.membus.snoopFanout::max_value                1                       # Request fanout histogram (Count)
system.membus.snoopFanout::total                 5163                       # Request fanout histogram (Count)
system.membus.power_state.pwrStateResidencyTicks::UNDEFINED    984255393                       # Cumulative time (in ticks) in various power states (Tick)
system.membus.reqLayer2.occupancy           174342308                       # Layer occupancy (ticks) (Tick)
system.membus.reqLayer2.utilization               0.2                       # Layer utilization (Ratio)
system.membus.respLayer2.occupancy          169868584                       # Layer occupancy (ticks) (Tick)
system.membus.respLayer2.utilization              0.2                       # Layer utilization (Ratio)
system.membus.respLayer3.occupancy          181613049                       # Layer occupancy (ticks) (Tick)
system.membus.respLayer3.utilization              0.2                       # Layer utilization (Ratio)
system.membus.snoop_filter.totRequests          10324                       # Total number of requests made to the snoop filter. (Count)
system.membus.snoop_filter.hitSingleRequests         5162                       # Number of requests hitting in the snoop filter with a single holder of the requested data. (Count)
system.membus.snoop_filter.hitMultiRequests           16                       # Number of requests hitting in the snoop filter with multiple (>1) holders of the requested data. (Count)
system.membus.snoop_filter.totSnoops                0                       # Total number of snoops made to the snoop filter. (Count)
system.membus.snoop_filter.hitSingleSnoops            0                       # Number of snoops hitting in the snoop filter with a single holder of the requested data. (Count)
system.membus.snoop_filter.hitMultiSnoops            0                       # Number of snoops hitting in the snoop filter with multiple (>1) holders of the requested data. (Count)
system.workload.inst.arm                            0                       # number of arm instructions executed (Count)
system.workload.inst.quiesce                        0                       # number of quiesce instructions executed (Count)

---------- End Simulation Statistics   ----------
